*****_entry_00001_conf_01
 OpenBabel06232217283D

 59 63  0  0  1  0  0  0  0  0999 V2000
  -18.1921    8.9959  -21.2587 O   0  0  0  0  0  0  0  0  0  0  0  0
  -18.5519    8.1788  -20.4139 C   0  0  0  0  0  0  0  0  0  0  0  0
  -18.5355    6.8103  -20.6298 N   0  0  0  0  0  0  0  0  0  0  0  0
  -17.9727    6.2503  -21.8535 C   0  0  1  0  0  0  0  0  0  0  0  0
  -16.4643    6.5340  -21.9417 C   0  0  0  0  0  0  0  0  0  0  0  0
  -15.6404    5.6296  -21.0229 C   0  0  0  0  0  0  0  0  0  0  0  0
  -15.9112    4.1372  -21.2666 C   0  0  2  0  0  0  0  0  0  0  0  0
  -15.4460    3.6272  -22.6496 C   0  0  0  0  0  0  0  0  0  0  0  0
  -15.7946    2.2442  -22.9128 N   0  0  0  0  0  0  0  0  0  0  0  0
  -15.0714    1.1569  -22.4497 C   0  0  0  0  0  0  0  0  0  0  0  0
  -14.0598    1.1526  -21.7776 O   0  0  0  0  0  0  0  0  0  0  0  0
  -15.7670   -0.0422  -22.9368 C   0  0  0  0  0  0  0  0  0  0  0  0
  -16.8816    0.3671  -23.6690 C   0  0  0  0  0  0  0  0  0  0  0  0
  -17.7012   -0.5675  -24.2760 C   0  0  0  0  0  0  0  0  0  0  0  0
  -17.3811   -1.9214  -24.1237 C   0  0  0  0  0  0  0  0  0  0  0  0
  -16.2617   -2.3214  -23.3693 C   0  0  0  0  0  0  0  0  0  0  0  0
  -15.4362   -1.3723  -22.7635 C   0  0  0  0  0  0  0  0  0  0  0  0
  -16.9817    1.8550  -23.6577 C   0  0  0  0  0  0  0  0  0  0  0  0
  -17.4137    3.8737  -21.0660 C   0  0  0  0  0  0  0  0  0  0  0  0
  -18.2939    4.7532  -21.9578 C   0  0  0  0  0  0  0  0  0  0  0  0
  -19.0147    8.5853  -19.0128 C   0  0  0  0  0  0  0  0  0  0  0  0
  -20.1736    9.4468  -19.1667 N   0  0  0  0  0  0  0  0  0  0  0  0
  -19.9790   10.8114  -19.2746 C   0  0  0  0  0  0  0  0  0  0  0  0
  -18.8767   11.3519  -19.3434 O   0  0  0  0  0  0  0  0  0  0  0  0
  -21.1045   11.5850  -19.3410 N   0  0  0  0  0  0  0  0  0  0  0  0
  -22.3997   11.0784  -19.2725 C   0  0  0  0  0  0  0  0  0  0  0  0
  -22.5989    9.7050  -19.1827 C   0  0  0  0  0  0  0  0  0  0  0  0
  -21.4181    8.8232  -19.1667 C   0  0  0  0  0  0  0  0  0  0  0  0
  -21.5644    7.6022  -19.1383 O   0  0  0  0  0  0  0  0  0  0  0  0
  -23.8920    9.1823  -19.0907 C   0  0  0  0  0  0  0  0  0  0  0  0
  -24.9860   10.0482  -19.0903 C   0  0  0  0  0  0  0  0  0  0  0  0
  -24.7855   11.4268  -19.1896 C   0  0  0  0  0  0  0  0  0  0  0  0
  -23.4916   11.9457  -19.2844 C   0  0  0  0  0  0  0  0  0  0  0  0
  -18.5092    6.2239  -19.8026 H   0  0  0  0  0  0  0  0  0  0  0  0
  -18.4627    6.7579  -22.6937 H   0  0  0  0  0  0  0  0  0  0  0  0
  -16.2547    7.5816  -21.6937 H   0  0  0  0  0  0  0  0  0  0  0  0
  -16.1350    6.3926  -22.9777 H   0  0  0  0  0  0  0  0  0  0  0  0
  -15.8834    5.8668  -19.9788 H   0  0  0  0  0  0  0  0  0  0  0  0
  -14.5750    5.8537  -21.1293 H   0  0  0  0  0  0  0  0  0  0  0  0
  -15.3649    3.5704  -20.5006 H   0  0  0  0  0  0  0  0  0  0  0  0
  -14.3677    3.7380  -22.7982 H   0  0  0  0  0  0  0  0  0  0  0  0
  -15.9376    4.2324  -23.4218 H   0  0  0  0  0  0  0  0  0  0  0  0
  -18.5657   -0.2667  -24.8594 H   0  0  0  0  0  0  0  0  0  0  0  0
  -18.0053   -2.6781  -24.5950 H   0  0  0  0  0  0  0  0  0  0  0  0
  -16.0361   -3.3801  -23.2621 H   0  0  0  0  0  0  0  0  0  0  0  0
  -14.5663   -1.6597  -22.1828 H   0  0  0  0  0  0  0  0  0  0  0  0
  -17.8700    2.1955  -23.1176 H   0  0  0  0  0  0  0  0  0  0  0  0
  -16.9521    2.2676  -24.6671 H   0  0  0  0  0  0  0  0  0  0  0  0
  -17.6712    4.0578  -20.0150 H   0  0  0  0  0  0  0  0  0  0  0  0
  -17.6410    2.8180  -21.2562 H   0  0  0  0  0  0  0  0  0  0  0  0
  -19.3475    4.5758  -21.7090 H   0  0  0  0  0  0  0  0  0  0  0  0
  -18.1688    4.4380  -23.0007 H   0  0  0  0  0  0  0  0  0  0  0  0
  -18.2258    9.1215  -18.4754 H   0  0  0  0  0  0  0  0  0  0  0  0
  -19.2490    7.6722  -18.4566 H   0  0  0  0  0  0  0  0  0  0  0  0
  -20.9408   12.5813  -19.4084 H   0  0  0  0  0  0  0  0  0  0  0  0
  -24.0476    8.1087  -19.0106 H   0  0  0  0  0  0  0  0  0  0  0  0
  -25.9942    9.6485  -19.0095 H   0  0  0  0  0  0  0  0  0  0  0  0
  -25.6408   12.0990  -19.1877 H   0  0  0  0  0  0  0  0  0  0  0  0
  -23.3525   13.0210  -19.3561 H   0  0  0  0  0  0  0  0  0  0  0  0
  1  2  2  0  0  0  0
  2  3  1  0  0  0  0
  2 21  1  0  0  0  0
  3  4  1  0  0  0  0
  3 34  1  0  0  0  0
  4  5  1  0  0  0  0
  4 20  1  0  0  0  0
  4 35  1  6  0  0  0
  5 37  1  0  0  0  0
  5 36  1  0  0  0  0
  5  6  1  0  0  0  0
  6 38  1  0  0  0  0
  6 39  1  0  0  0  0
  6  7  1  0  0  0  0
  7 40  1  1  0  0  0
  7  8  1  0  0  0  0
  7 19  1  0  0  0  0
  8  9  1  0  0  0  0
  8 41  1  0  0  0  0
  8 42  1  0  0  0  0
  9 10  1  0  0  0  0
  9 18  1  0  0  0  0
 10 12  1  0  0  0  0
 10 11  2  0  0  0  0
 12 13  2  0  0  0  0
 12 17  1  0  0  0  0
 13 18  1  0  0  0  0
 13 14  1  0  0  0  0
 14 43  1  0  0  0  0
 14 15  2  0  0  0  0
 15 16  1  0  0  0  0
 15 44  1  0  0  0  0
 16 45  1  0  0  0  0
 16 17  2  0  0  0  0
 17 46  1  0  0  0  0
 18 47  1  0  0  0  0
 18 48  1  0  0  0  0
 19 20  1  0  0  0  0
 19 49  1  0  0  0  0
 19 50  1  0  0  0  0
 20 51  1  0  0  0  0
 20 52  1  0  0  0  0
 21 22  1  0  0  0  0
 21 53  1  0  0  0  0
 21 54  1  0  0  0  0
 22 28  1  0  0  0  0
 22 23  1  0  0  0  0
 23 24  2  0  0  0  0
 23 25  1  0  0  0  0
 25 26  1  0  0  0  0
 25 55  1  0  0  0  0
 26 27  2  0  0  0  0
 26 33  1  0  0  0  0
 27 28  1  0  0  0  0
 27 30  1  0  0  0  0
 28 29  2  0  0  0  0
 30 56  1  0  0  0  0
 30 31  2  0  0  0  0
 31 32  1  0  0  0  0
 31 57  1  0  0  0  0
 32 58  1  0  0  0  0
 32 33  2  0  0  0  0
 33 59  1  0  0  0  0
M  END
$$$$
