*****_entry_00001_conf_01
 OpenBabel06232217283D

 61 64  0  0  0  0  0  0  0  0999 V2000
  -14.0180    9.2605  -19.0049 Cl  0  0  0  0  0  0  0  0  0  0  0  0
  -13.8910    7.6120  -19.5129 C   0  0  0  0  0  0  0  0  0  0  0  0
  -12.6797    6.9161  -19.4455 C   0  0  0  0  0  0  0  0  0  0  0  0
  -11.5998    7.6025  -18.9567 O   0  0  0  0  0  0  0  0  0  0  0  0
  -10.3111    7.0426  -19.1666 C   0  0  0  0  0  0  0  0  0  0  0  0
  -12.6578    5.5733  -19.8364 C   0  0  0  0  0  0  0  0  0  0  0  0
  -13.8154    4.9380  -20.3233 C   0  0  0  0  0  0  0  0  0  0  0  0
  -13.8347    3.5825  -20.5197 O   0  0  0  0  0  0  0  0  0  0  0  0
  -12.5637    2.9815  -20.7502 C   0  0  0  0  0  0  0  0  0  0  0  0
  -15.0163    5.6572  -20.4306 C   0  0  0  0  0  0  0  0  0  0  0  0
  -16.2476    5.1531  -20.9027 N   0  0  0  0  0  0  0  0  0  0  0  0
  -17.4020    5.8336  -21.2477 C   0  0  0  0  0  0  0  0  0  0  0  0
  -17.6547    7.0132  -21.0244 O   0  0  0  0  0  0  0  0  0  0  0  0
  -18.4550    4.9190  -21.8626 C   0  0  0  0  0  0  0  0  0  0  0  0
  -17.8650    3.2096  -21.9923 S   0  0  0  0  0  0  0  0  0  0  0  0
  -19.2173    2.3927  -22.8167 C   0  0  0  0  0  0  0  0  0  0  0  0
  -19.0554    1.0934  -23.3921 N   0  0  0  0  0  0  0  0  0  0  0  0
  -17.7803    0.4300  -23.3824 C   0  0  0  0  0  0  0  0  0  0  0  0
  -17.6864   -0.9401  -23.0813 C   0  0  0  0  0  0  0  0  0  0  0  0
  -16.4525   -1.5999  -23.1091 C   0  0  0  0  0  0  0  0  0  0  0  0
  -15.2801   -0.9068  -23.4117 C   0  0  0  0  0  0  0  0  0  0  0  0
  -14.1402   -1.6618  -23.3896 O   0  0  0  0  0  0  0  0  0  0  0  0
  -12.9363   -1.0256  -23.8188 C   0  0  0  0  0  0  0  0  0  0  0  0
  -12.5393    0.0020  -22.7743 C   0  0  0  0  0  0  0  0  0  0  0  0
  -15.3562    0.4528  -23.7049 C   0  0  0  0  0  0  0  0  0  0  0  0
  -16.5955    1.1069  -23.7140 C   0  0  0  0  0  0  0  0  0  0  0  0
  -20.1287    0.3937  -23.9870 C   0  0  0  0  0  0  0  0  0  0  0  0
  -20.1814   -0.7217  -24.6336 N   0  0  0  0  0  0  0  0  0  0  0  0
  -21.3678    1.1227  -23.8677 C   0  0  0  0  0  0  0  0  0  0  0  0
  -22.7243    0.8478  -24.1600 C   0  0  0  0  0  0  0  0  0  0  0  0
  -23.3178   -0.4129  -24.6700 C   0  0  0  0  0  0  0  0  0  0  0  0
  -23.5077    1.9053  -23.8861 N   0  0  0  0  0  0  0  0  0  0  0  0
  -22.6502    2.8398  -23.4388 N   0  0  0  0  0  0  0  0  0  0  0  0
  -23.0141    3.7495  -23.1803 H   0  0  0  0  0  0  0  0  0  0  0  0
  -21.3660    2.3923  -23.3474 C   0  0  0  0  0  0  0  0  0  0  0  0
  -20.3371    3.0819  -22.8060 N   0  0  0  0  0  0  0  0  0  0  0  0
  -15.0438    6.9888  -19.9940 C   0  0  0  0  0  0  0  0  0  0  0  0
   -9.5717    7.7615  -18.8011 H   0  0  0  0  0  0  0  0  0  0  0  0
  -10.1180    6.8776  -20.2318 H   0  0  0  0  0  0  0  0  0  0  0  0
  -10.1880    6.1184  -18.5931 H   0  0  0  0  0  0  0  0  0  0  0  0
  -11.7532    4.9894  -19.7175 H   0  0  0  0  0  0  0  0  0  0  0  0
  -12.0805    2.7451  -19.7966 H   0  0  0  0  0  0  0  0  0  0  0  0
  -11.9124    3.6095  -21.3685 H   0  0  0  0  0  0  0  0  0  0  0  0
  -12.7266    2.0392  -21.2818 H   0  0  0  0  0  0  0  0  0  0  0  0
  -16.3336    4.1406  -20.9125 H   0  0  0  0  0  0  0  0  0  0  0  0
  -18.6619    5.2781  -22.8767 H   0  0  0  0  0  0  0  0  0  0  0  0
  -19.3987    4.9906  -21.3125 H   0  0  0  0  0  0  0  0  0  0  0  0
  -18.5755   -1.5135  -22.8228 H   0  0  0  0  0  0  0  0  0  0  0  0
  -16.4060   -2.6642  -22.8882 H   0  0  0  0  0  0  0  0  0  0  0  0
  -13.0973   -0.5170  -24.7764 H   0  0  0  0  0  0  0  0  0  0  0  0
  -12.1309   -1.7629  -23.9143 H   0  0  0  0  0  0  0  0  0  0  0  0
  -13.3214    0.7600  -22.6614 H   0  0  0  0  0  0  0  0  0  0  0  0
  -11.6056    0.4984  -23.0542 H   0  0  0  0  0  0  0  0  0  0  0  0
  -12.4084   -0.4714  -21.7957 H   0  0  0  0  0  0  0  0  0  0  0  0
  -14.4720    1.0394  -23.9325 H   0  0  0  0  0  0  0  0  0  0  0  0
  -16.6158    2.1614  -23.9819 H   0  0  0  0  0  0  0  0  0  0  0  0
  -19.2488   -1.1323  -24.7244 H   0  0  0  0  0  0  0  0  0  0  0  0
  -22.9189   -0.6556  -25.6592 H   0  0  0  0  0  0  0  0  0  0  0  0
  -24.4072   -0.3373  -24.7542 H   0  0  0  0  0  0  0  0  0  0  0  0
  -23.0943   -1.2410  -23.9892 H   0  0  0  0  0  0  0  0  0  0  0  0
  -15.9635    7.5654  -20.0372 H   0  0  0  0  0  0  0  0  0  0  0  0
  1  2  1  0  0  0  0
  2  3  2  0  0  0  0
  2 37  1  0  0  0  0
  3  6  1  0  0  0  0
  3  4  1  0  0  0  0
  4  5  1  0  0  0  0
  5 39  1  0  0  0  0
  5 40  1  0  0  0  0
  5 38  1  0  0  0  0
  6  7  2  0  0  0  0
  6 41  1  0  0  0  0
  7  8  1  0  0  0  0
  7 10  1  0  0  0  0
  8  9  1  0  0  0  0
  9 42  1  0  0  0  0
  9 43  1  0  0  0  0
  9 44  1  0  0  0  0
 10 37  2  0  0  0  0
 10 11  1  0  0  0  0
 11 12  1  0  0  0  0
 11 45  1  0  0  0  0
 12 13  2  0  0  0  0
 12 14  1  0  0  0  0
 14 15  1  0  0  0  0
 14 47  1  0  0  0  0
 14 46  1  0  0  0  0
 15 16  1  0  0  0  0
 16 36  2  0  0  0  0
 16 17  1  0  0  0  0
 17 18  1  0  0  0  0
 17 27  1  0  0  0  0
 18 19  2  0  0  0  0
 18 26  1  0  0  0  0
 19 48  1  0  0  0  0
 19 20  1  0  0  0  0
 20 21  2  0  0  0  0
 20 49  1  0  0  0  0
 21 22  1  0  0  0  0
 21 25  1  0  0  0  0
 22 23  1  0  0  0  0
 23 50  1  0  0  0  0
 23 51  1  0  0  0  0
 23 24  1  0  0  0  0
 24 52  1  0  0  0  0
 24 54  1  0  0  0  0
 24 53  1  0  0  0  0
 25 26  2  0  0  0  0
 25 55  1  0  0  0  0
 26 56  1  0  0  0  0
 27 28  2  0  0  0  0
 27 29  1  0  0  0  0
 28 57  1  0  0  0  0
 29 35  2  0  0  0  0
 29 30  1  0  0  0  0
 30 31  1  0  0  0  0
 30 32  2  0  0  0  0
 31 60  1  0  0  0  0
 31 58  1  0  0  0  0
 31 59  1  0  0  0  0
 32 33  1  0  0  0  0
 33 35  1  0  0  0  0
 33 34  1  0  0  0  0
 35 36  1  0  0  0  0
 37 61  1  0  0  0  0
M  END
$$$$
