*****_entry_00001_conf_01
 OpenBabel06232217283D

 50 53  0  0  0  0  0  0  0  0999 V2000
  -20.7094    1.5839  -23.5626 F   0  0  0  0  0  0  0  0  0  0  0  0
  -19.5236    0.9652  -23.6259 C   0  0  0  0  0  0  0  0  0  0  0  0
  -18.3585    1.7163  -23.6612 C   0  0  0  0  0  0  0  0  0  0  0  0
  -17.1188    1.0715  -23.7442 C   0  0  0  0  0  0  0  0  0  0  0  0
  -17.0290   -0.3265  -23.7724 C   0  0  0  0  0  0  0  0  0  0  0  0
  -15.8415   -1.0264  -23.9794 N   0  3  0  0  0  0  0  0  0  0  0  0
  -14.9648   -1.4070  -22.8788 C   0  0  0  0  0  0  0  0  0  0  0  0
  -14.0753   -0.2084  -22.5921 C   0  0  0  0  0  0  0  0  0  0  0  0
  -14.6845    0.8915  -21.9992 N   0  0  0  0  0  0  0  0  0  0  0  0
  -14.0054    2.0168  -21.7118 C   0  0  0  0  0  0  0  0  0  0  0  0
  -12.6590    2.0558  -21.9844 N   0  0  0  0  0  0  0  0  0  0  0  0
  -11.9410    1.0120  -22.5744 C   0  0  0  0  0  0  0  0  0  0  0  0
  -10.7419    1.0882  -22.8101 O   0  0  0  0  0  0  0  0  0  0  0  0
  -12.7614   -0.1938  -22.8927 C   0  0  0  0  0  0  0  0  0  0  0  0
  -12.1412    3.2483  -21.6137 N   0  0  0  0  0  0  0  0  0  0  0  0
  -13.2288    3.8806  -21.1690 C   0  0  0  0  0  0  0  0  0  0  0  0
  -13.3135    5.1325  -20.7095 N   0  3  0  0  0  0  0  0  0  0  0  0
  -14.3630    5.5043  -19.7843 C   0  0  0  0  0  0  0  0  0  0  0  0
  -15.5674    5.9764  -20.5692 C   0  0  0  0  0  0  0  0  0  0  0  0
  -15.8974    7.3398  -20.6726 C   0  0  0  0  0  0  0  0  0  0  0  0
  -15.0407    8.2196  -20.0638 O   0  0  0  0  0  0  0  0  0  0  0  0
  -15.3167    9.6037  -20.2452 C   0  0  0  0  0  0  0  0  0  0  0  0
  -17.0340    7.7228  -21.3939 C   0  0  0  0  0  0  0  0  0  0  0  0
  -17.8551    6.7600  -21.9868 C   0  0  0  0  0  0  0  0  0  0  0  0
  -17.5488    5.4087  -21.8638 C   0  0  0  0  0  0  0  0  0  0  0  0
  -16.4138    5.0185  -21.1564 C   0  0  0  0  0  0  0  0  0  0  0  0
  -14.3896    3.1576  -21.2052 N   0  0  0  0  0  0  0  0  0  0  0  0
  -18.2315   -1.0559  -23.7606 C   0  0  0  0  0  0  0  0  0  0  0  0
  -19.4726   -0.4185  -23.6750 C   0  0  0  0  0  0  0  0  0  0  0  0
  -18.4179    2.7997  -23.6432 H   0  0  0  0  0  0  0  0  0  0  0  0
  -16.2360    1.6990  -23.8031 H   0  0  0  0  0  0  0  0  0  0  0  0
  -15.9507   -1.7756  -24.6604 H   0  0  0  0  0  0  0  0  0  0  0  0
  -14.3810   -2.2937  -23.1493 H   0  0  0  0  0  0  0  0  0  0  0  0
  -15.5180   -1.6197  -21.9586 H   0  0  0  0  0  0  0  0  0  0  0  0
  -15.7028    0.8534  -21.9282 H   0  0  0  0  0  0  0  0  0  0  0  0
  -12.2400   -1.0203  -23.3582 H   0  0  0  0  0  0  0  0  0  0  0  0
  -13.0836    5.8596  -21.3764 H   0  0  0  0  0  0  0  0  0  0  0  0
  -14.0411    6.3119  -19.1139 H   0  0  0  0  0  0  0  0  0  0  0  0
  -14.6284    4.6573  -19.1401 H   0  0  0  0  0  0  0  0  0  0  0  0
  -14.6376   10.1657  -19.5968 H   0  0  0  0  0  0  0  0  0  0  0  0
  -16.3422    9.8441  -19.9447 H   0  0  0  0  0  0  0  0  0  0  0  0
  -15.1215    9.9175  -21.2752 H   0  0  0  0  0  0  0  0  0  0  0  0
  -17.3029    8.7656  -21.5225 H   0  0  0  0  0  0  0  0  0  0  0  0
  -18.7364    7.0671  -22.5440 H   0  0  0  0  0  0  0  0  0  0  0  0
  -18.1922    4.6582  -22.3155 H   0  0  0  0  0  0  0  0  0  0  0  0
  -16.1876    3.9589  -21.0526 H   0  0  0  0  0  0  0  0  0  0  0  0
  -18.2120   -2.1413  -23.8306 H   0  0  0  0  0  0  0  0  0  0  0  0
  -20.3925   -0.9936  -23.6650 H   0  0  0  0  0  0  0  0  0  0  0  0
  -15.2373   -0.2769  -24.4689 H   0  0  0  0  0  0  0  0  0  0  0  0
  -12.4726    5.1419  -20.0317 H   0  0  0  0  0  0  0  0  0  0  0  0
  1  2  1  0  0  0  0
  2 29  2  0  0  0  0
  2  3  1  0  0  0  0
  3 30  1  0  0  0  0
  3  4  2  0  0  0  0
  4 31  1  0  0  0  0
  4  5  1  0  0  0  0
  5  6  1  0  0  0  0
  5 28  2  0  0  0  0
  6  7  1  0  0  0  0
  6 32  1  0  0  0  0
  6 49  1  0  0  0  0
  7  8  1  0  0  0  0
  7 33  1  0  0  0  0
  7 34  1  0  0  0  0
  8  9  1  0  0  0  0
  8 14  2  0  0  0  0
  9 10  1  0  0  0  0
  9 35  1  0  0  0  0
 10 11  1  0  0  0  0
 10 27  2  0  0  0  0
 11 12  1  0  0  0  0
 11 15  1  0  0  0  0
 12 14  1  0  0  0  0
 12 13  2  0  0  0  0
 14 36  1  0  0  0  0
 15 16  2  0  0  0  0
 16 17  1  0  0  0  0
 16 27  1  0  0  0  0
 17 18  1  0  0  0  0
 17 37  1  0  0  0  0
 17 50  1  0  0  0  0
 18 38  1  0  0  0  0
 18 19  1  0  0  0  0
 18 39  1  0  0  0  0
 19 26  2  0  0  0  0
 19 20  1  0  0  0  0
 20 23  2  0  0  0  0
 20 21  1  0  0  0  0
 21 22  1  0  0  0  0
 22 42  1  0  0  0  0
 22 40  1  0  0  0  0
 22 41  1  0  0  0  0
 23 43  1  0  0  0  0
 23 24  1  0  0  0  0
 24 25  2  0  0  0  0
 24 44  1  0  0  0  0
 25 26  1  0  0  0  0
 25 45  1  0  0  0  0
 26 46  1  0  0  0  0
 28 29  1  0  0  0  0
 28 47  1  0  0  0  0
 29 48  1  0  0  0  0
M  CHG  2   6   1  17   1
M  END
$$$$
