*****_entry_00001_conf_01
 OpenBabel06232217283D

 56 59  0  0  1  0  0  0  0  0999 V2000
  -21.9636   -0.3496  -24.5678 Cl  0  0  0  0  0  0  0  0  0  0  0  0
  -20.5240    0.4384  -24.0457 C   0  0  0  0  0  0  0  0  0  0  0  0
  -20.5123    1.8074  -23.8009 C   0  0  0  0  0  0  0  0  0  0  0  0
  -21.6199    2.5450  -23.9650 F   0  0  0  0  0  0  0  0  0  0  0  0
  -19.3450    2.4341  -23.3823 C   0  0  0  0  0  0  0  0  0  0  0  0
  -18.1757    1.6860  -23.2107 C   0  0  0  0  0  0  0  0  0  0  0  0
  -18.1718    0.3098  -23.4569 C   0  0  0  0  0  0  0  0  0  0  0  0
  -17.0329   -0.5079  -23.3317 N   0  0  0  0  0  0  0  0  0  0  0  0
  -16.8992   -1.8447  -23.6661 C   0  0  0  0  0  0  0  0  0  0  0  0
  -17.7383   -2.5185  -24.2610 O   0  0  0  0  0  0  0  0  0  0  0  0
  -15.5336   -2.4460  -23.3444 C   0  0  0  0  0  0  0  0  0  0  0  0
  -14.1683   -1.8013  -24.3621 S   0  0  0  0  0  0  0  0  0  0  0  0
  -13.7743   -0.3499  -23.4929 C   0  0  0  0  0  0  0  0  0  0  0  0
  -14.6609    0.4116  -22.9527 N   0  0  0  0  0  0  0  0  0  0  0  0
  -14.1948    1.5282  -22.2958 C   0  0  0  0  0  0  0  0  0  0  0  0
  -12.8979    1.8609  -22.1949 C   0  0  0  0  0  0  0  0  0  0  0  0
  -11.9108    0.9645  -22.8265 C   0  0  0  0  0  0  0  0  0  0  0  0
  -10.7045    1.1663  -22.7668 O   0  0  0  0  0  0  0  0  0  0  0  0
  -12.4379   -0.1176  -23.4633 N   0  0  0  0  0  0  0  0  0  0  0  0
  -12.3855    3.0525  -21.4470 C   0  0  0  0  0  0  0  0  0  0  0  0
  -13.4371    3.9973  -21.0050 N   0  3  2  0  0  0  0  0  0  0  0  0
  -12.8682    4.8984  -19.9844 C   0  0  0  0  0  0  0  0  0  0  0  0
  -13.6502    6.1745  -19.7671 C   0  0  0  0  0  0  0  0  0  0  0  0
  -13.0569    7.2588  -19.1018 C   0  0  0  0  0  0  0  0  0  0  0  0
  -13.7445    8.4622  -18.9275 C   0  0  0  0  0  0  0  0  0  0  0  0
  -13.0473    9.4330  -18.2618 O   0  0  0  0  0  0  0  0  0  0  0  0
  -13.7805   10.6055  -17.9279 C   0  0  0  0  0  0  0  0  0  0  0  0
  -15.0520    8.5793  -19.3968 C   0  0  0  0  0  0  0  0  0  0  0  0
  -15.6568    7.5051  -20.0553 C   0  0  0  0  0  0  0  0  0  0  0  0
  -14.9585    6.3119  -20.2463 C   0  0  0  0  0  0  0  0  0  0  0  0
  -14.6135    3.2648  -20.5040 C   0  0  0  0  0  0  0  0  0  0  0  0
  -15.2270    2.3859  -21.6087 C   0  0  0  0  0  0  0  0  0  0  0  0
  -19.3580   -0.3113  -23.8726 C   0  0  0  0  0  0  0  0  0  0  0  0
  -19.3452    3.5036  -23.1945 H   0  0  0  0  0  0  0  0  0  0  0  0
  -17.2819    2.2122  -22.8885 H   0  0  0  0  0  0  0  0  0  0  0  0
  -16.2232   -0.0936  -22.8830 H   0  0  0  0  0  0  0  0  0  0  0  0
  -15.6021   -3.5251  -23.5161 H   0  0  0  0  0  0  0  0  0  0  0  0
  -15.3089   -2.2845  -22.2852 H   0  0  0  0  0  0  0  0  0  0  0  0
  -11.8009   -0.7672  -23.8959 H   0  0  0  0  0  0  0  0  0  0  0  0
  -11.6864    3.6057  -22.0864 H   0  0  0  0  0  0  0  0  0  0  0  0
  -11.8194    2.6791  -20.5826 H   0  0  0  0  0  0  0  0  0  0  0  0
  -11.8561    5.2000  -20.2871 H   0  0  0  0  0  0  0  0  0  0  0  0
  -12.7579    4.3664  -19.0296 H   0  0  0  0  0  0  0  0  0  0  0  0
  -12.0414    7.1778  -18.7206 H   0  0  0  0  0  0  0  0  0  0  0  0
  -13.0700   11.3432  -17.5424 H   0  0  0  0  0  0  0  0  0  0  0  0
  -14.5109   10.4057  -17.1381 H   0  0  0  0  0  0  0  0  0  0  0  0
  -14.2621   11.0360  -18.8127 H   0  0  0  0  0  0  0  0  0  0  0  0
  -15.6304    9.4851  -19.2517 H   0  0  0  0  0  0  0  0  0  0  0  0
  -16.6779    7.5965  -20.4170 H   0  0  0  0  0  0  0  0  0  0  0  0
  -15.4392    5.4821  -20.7603 H   0  0  0  0  0  0  0  0  0  0  0  0
  -15.3945    3.9580  -20.1715 H   0  0  0  0  0  0  0  0  0  0  0  0
  -14.3432    2.6427  -19.6399 H   0  0  0  0  0  0  0  0  0  0  0  0
  -15.7161    3.0183  -22.3607 H   0  0  0  0  0  0  0  0  0  0  0  0
  -16.0026    1.7536  -21.1603 H   0  0  0  0  0  0  0  0  0  0  0  0
  -19.3831   -1.3793  -24.0716 H   0  0  0  0  0  0  0  0  0  0  0  0
  -13.7401    4.5912  -21.8546 H   0  0  0  0  0  0  0  0  0  0  0  0
  1  2  1  0  0  0  0
  2  3  2  0  0  0  0
  2 33  1  0  0  0  0
  3  4  1  0  0  0  0
  3  5  1  0  0  0  0
  5  6  2  0  0  0  0
  5 34  1  0  0  0  0
  6  7  1  0  0  0  0
  6 35  1  0  0  0  0
  7 33  2  0  0  0  0
  7  8  1  0  0  0  0
  8  9  1  0  0  0  0
  8 36  1  0  0  0  0
  9 10  2  0  0  0  0
  9 11  1  0  0  0  0
 11 12  1  0  0  0  0
 11 37  1  0  0  0  0
 11 38  1  0  0  0  0
 12 13  1  0  0  0  0
 13 14  2  0  0  0  0
 13 19  1  0  0  0  0
 14 15  1  0  0  0  0
 15 32  1  0  0  0  0
 15 16  2  0  0  0  0
 16 17  1  0  0  0  0
 16 20  1  0  0  0  0
 17 18  2  0  0  0  0
 17 19  1  0  0  0  0
 19 39  1  0  0  0  0
 20 41  1  0  0  0  0
 20 21  1  0  0  0  0
 20 40  1  0  0  0  0
 21 31  1  0  0  0  0
 21 22  1  0  0  0  0
 21 56  1  6  0  0  0
 22 23  1  0  0  0  0
 22 43  1  0  0  0  0
 22 42  1  0  0  0  0
 23 24  2  0  0  0  0
 23 30  1  0  0  0  0
 24 25  1  0  0  0  0
 24 44  1  0  0  0  0
 25 26  1  0  0  0  0
 25 28  2  0  0  0  0
 26 27  1  0  0  0  0
 27 47  1  0  0  0  0
 27 45  1  0  0  0  0
 27 46  1  0  0  0  0
 28 29  1  0  0  0  0
 28 48  1  0  0  0  0
 29 30  2  0  0  0  0
 29 49  1  0  0  0  0
 30 50  1  0  0  0  0
 31 32  1  0  0  0  0
 31 52  1  0  0  0  0
 31 51  1  0  0  0  0
 32 53  1  0  0  0  0
 32 54  1  0  0  0  0
 33 55  1  0  0  0  0
M  CHG  1  21   1
M  END
$$$$
