*****_entry_00001_conf_01
 OpenBabel06232217283D

 62 66  0  0  0  0  0  0  0  0999 V2000
  -30.6335   -0.7652  -22.2031 O   0  0  0  0  0  0  0  0  0  0  0  0
  -30.8021   -1.9336  -21.3872 C   0  0  0  0  0  0  0  0  0  0  0  0
  -30.1851   -1.6217  -20.0257 C   0  0  0  0  0  0  0  0  0  0  0  0
  -32.2869   -2.2481  -21.2239 C   0  0  0  0  0  0  0  0  0  0  0  0
  -29.3541   -0.3709  -22.4836 C   0  0  0  0  0  0  0  0  0  0  0  0
  -28.2103   -1.1255  -22.2376 C   0  0  0  0  0  0  0  0  0  0  0  0
  -26.9506   -0.6190  -22.5676 C   0  0  0  0  0  0  0  0  0  0  0  0
  -26.8117    0.6453  -23.1597 C   0  0  0  0  0  0  0  0  0  0  0  0
  -25.4831    1.1575  -23.4681 C   0  0  0  0  0  0  0  0  0  0  0  0
  -24.3226    0.4250  -23.3078 N   0  0  0  0  0  0  0  0  0  0  0  0
  -23.3915    1.2938  -23.6412 C   0  0  0  0  0  0  0  0  0  0  0  0
  -21.9351    1.2028  -23.6086 C   0  0  0  0  0  0  0  0  0  0  0  0
  -21.2893   -0.0463  -23.6460 C   0  0  0  0  0  0  0  0  0  0  0  0
  -19.8973   -0.1249  -23.6878 C   0  0  0  0  0  0  0  0  0  0  0  0
  -19.2799   -1.3686  -23.7555 N   0  0  0  0  0  0  0  0  0  0  0  0
  -17.9343   -1.5414  -23.8995 C   0  0  0  0  0  0  0  0  0  0  0  0
  -17.4876   -2.6862  -23.9673 O   0  0  0  0  0  0  0  0  0  0  0  0
  -17.1595   -0.3940  -23.9656 N   0  0  0  0  0  0  0  0  0  0  0  0
  -15.7329   -0.5565  -24.2189 C   0  0  0  0  0  0  0  0  0  0  0  0
  -15.0373   -1.5520  -23.2735 C   0  0  0  0  0  0  0  0  0  0  0  0
  -13.5052   -1.4548  -23.2376 C   0  0  0  0  0  0  0  0  0  0  0  0
  -12.9382   -0.0908  -22.9210 C   0  0  0  0  0  0  0  0  0  0  0  0
  -13.7845    0.9308  -22.4668 C   0  0  0  0  0  0  0  0  0  0  0  0
  -13.2818    2.2044  -22.1939 C   0  0  0  0  0  0  0  0  0  0  0  0
  -11.9247    2.4690  -22.3597 C   0  0  0  0  0  0  0  0  0  0  0  0
  -11.0678    1.4555  -22.7829 C   0  0  0  0  0  0  0  0  0  0  0  0
  -11.5694    0.1802  -23.0535 C   0  0  0  0  0  0  0  0  0  0  0  0
  -17.6604    0.8957  -23.7809 C   0  0  0  0  0  0  0  0  0  0  0  0
  -16.9654    1.9077  -23.7104 O   0  0  0  0  0  0  0  0  0  0  0  0
  -19.1282    1.0289  -23.6774 C   0  0  0  0  0  0  0  0  0  0  0  0
  -19.7493    2.2802  -23.6111 C   0  0  0  0  0  0  0  0  0  0  0  0
  -21.1476    2.3643  -23.5800 C   0  0  0  0  0  0  0  0  0  0  0  0
  -23.9039    2.4984  -24.0294 O   0  0  0  0  0  0  0  0  0  0  0  0
  -25.2798    2.4091  -23.9110 N   0  0  0  0  0  0  0  0  0  0  0  0
  -27.9645    1.3876  -23.4348 C   0  0  0  0  0  0  0  0  0  0  0  0
  -29.2267    0.8782  -23.0986 C   0  0  0  0  0  0  0  0  0  0  0  0
  -30.2639   -2.7972  -21.7970 H   0  0  0  0  0  0  0  0  0  0  0  0
  -30.6777   -0.7625  -19.5571 H   0  0  0  0  0  0  0  0  0  0  0  0
  -29.1281   -1.3574  -20.1371 H   0  0  0  0  0  0  0  0  0  0  0  0
  -30.2608   -2.4801  -19.3509 H   0  0  0  0  0  0  0  0  0  0  0  0
  -32.8170   -1.4088  -20.7609 H   0  0  0  0  0  0  0  0  0  0  0  0
  -32.4327   -3.1381  -20.6034 H   0  0  0  0  0  0  0  0  0  0  0  0
  -32.7695   -2.4219  -22.1902 H   0  0  0  0  0  0  0  0  0  0  0  0
  -28.2583   -2.1161  -21.7998 H   0  0  0  0  0  0  0  0  0  0  0  0
  -26.0736   -1.2307  -22.3620 H   0  0  0  0  0  0  0  0  0  0  0  0
  -21.8725   -0.9644  -23.6687 H   0  0  0  0  0  0  0  0  0  0  0  0
  -19.8238   -2.2215  -23.7560 H   0  0  0  0  0  0  0  0  0  0  0  0
  -15.2620    0.4263  -24.0898 H   0  0  0  0  0  0  0  0  0  0  0  0
  -15.5536   -0.8564  -25.2569 H   0  0  0  0  0  0  0  0  0  0  0  0
  -15.3499   -2.5779  -23.4958 H   0  0  0  0  0  0  0  0  0  0  0  0
  -15.4018   -1.3415  -22.2595 H   0  0  0  0  0  0  0  0  0  0  0  0
  -13.1131   -1.7477  -24.2204 H   0  0  0  0  0  0  0  0  0  0  0  0
  -13.1219   -2.1980  -22.5272 H   0  0  0  0  0  0  0  0  0  0  0  0
  -14.8512    0.7483  -22.3479 H   0  0  0  0  0  0  0  0  0  0  0  0
  -13.9540    2.9905  -21.8604 H   0  0  0  0  0  0  0  0  0  0  0  0
  -11.5354    3.4620  -22.1527 H   0  0  0  0  0  0  0  0  0  0  0  0
  -10.0062    1.6559  -22.9012 H   0  0  0  0  0  0  0  0  0  0  0  0
  -10.8812   -0.5973  -23.3784 H   0  0  0  0  0  0  0  0  0  0  0  0
  -19.1503    3.1888  -23.6092 H   0  0  0  0  0  0  0  0  0  0  0  0
  -21.6197    3.3462  -23.5530 H   0  0  0  0  0  0  0  0  0  0  0  0
  -27.8918    2.3697  -23.8973 H   0  0  0  0  0  0  0  0  0  0  0  0
  -30.1172    1.4676  -23.3059 H   0  0  0  0  0  0  0  0  0  0  0  0
  1  5  1  0  0  0  0
  1  2  1  0  0  0  0
  2  3  1  0  0  0  0
  2  4  1  0  0  0  0
  2 37  1  0  0  0  0
  3 38  1  0  0  0  0
  3 39  1  0  0  0  0
  3 40  1  0  0  0  0
  4 41  1  0  0  0  0
  4 42  1  0  0  0  0
  4 43  1  0  0  0  0
  5  6  2  0  0  0  0
  5 36  1  0  0  0  0
  6  7  1  0  0  0  0
  6 44  1  0  0  0  0
  7  8  2  0  0  0  0
  7 45  1  0  0  0  0
  8  9  1  0  0  0  0
  8 35  1  0  0  0  0
  9 34  2  0  0  0  0
  9 10  1  0  0  0  0
 10 11  2  0  0  0  0
 11 33  1  0  0  0  0
 11 12  1  0  0  0  0
 12 32  2  0  0  0  0
 12 13  1  0  0  0  0
 13 46  1  0  0  0  0
 13 14  2  0  0  0  0
 14 15  1  0  0  0  0
 14 30  1  0  0  0  0
 15 47  1  0  0  0  0
 15 16  1  0  0  0  0
 16 17  2  0  0  0  0
 16 18  1  0  0  0  0
 18 28  1  0  0  0  0
 18 19  1  0  0  0  0
 19 48  1  0  0  0  0
 19 49  1  0  0  0  0
 19 20  1  0  0  0  0
 20 50  1  0  0  0  0
 20 51  1  0  0  0  0
 20 21  1  0  0  0  0
 21 52  1  0  0  0  0
 21 22  1  0  0  0  0
 21 53  1  0  0  0  0
 22 23  2  0  0  0  0
 22 27  1  0  0  0  0
 23 24  1  0  0  0  0
 23 54  1  0  0  0  0
 24 25  2  0  0  0  0
 24 55  1  0  0  0  0
 25 26  1  0  0  0  0
 25 56  1  0  0  0  0
 26 27  2  0  0  0  0
 26 57  1  0  0  0  0
 27 58  1  0  0  0  0
 28 29  2  0  0  0  0
 28 30  1  0  0  0  0
 30 31  2  0  0  0  0
 31 32  1  0  0  0  0
 31 59  1  0  0  0  0
 32 60  1  0  0  0  0
 33 34  1  0  0  0  0
 35 36  2  0  0  0  0
 35 61  1  0  0  0  0
 36 62  1  0  0  0  0
M  END
$$$$
