*****_entry_00001_conf_01
 OpenBabel06232217283D

 50 54  0  0  0  0  0  0  0  0999 V2000
  -24.4808    1.5572  -24.6497 O   0  0  0  0  0  0  0  0  0  0  0  0
  -23.6655    0.6414  -24.7072 C   0  0  0  0  0  0  0  0  0  0  0  0
  -23.9623   -0.6238  -25.1932 N   0  0  0  0  0  0  0  0  0  0  0  0
  -25.1886   -1.1067  -25.6929 C   0  0  0  0  0  0  0  0  0  0  0  0
  -25.4608   -2.4546  -25.9369 C   0  0  0  0  0  0  0  0  0  0  0  0
  -26.7097   -2.8621  -26.4355 C   0  0  0  0  0  0  0  0  0  0  0  0
  -26.9674   -4.3197  -26.6821 C   0  0  0  0  0  0  0  0  0  0  0  0
  -27.6942   -1.9027  -26.6859 C   0  0  0  0  0  0  0  0  0  0  0  0
  -27.4328   -0.5553  -26.4471 C   0  0  0  0  0  0  0  0  0  0  0  0
  -26.1867   -0.1600  -25.9552 C   0  0  0  0  0  0  0  0  0  0  0  0
  -22.2694    0.8226  -24.2729 C   0  0  0  0  0  0  0  0  0  0  0  0
  -21.7052    1.9179  -23.6156 C   0  0  0  0  0  0  0  0  0  0  0  0
  -22.4546    3.1404  -23.1754 C   0  0  0  0  0  0  0  0  0  0  0  0
  -20.2834    1.7418  -23.4461 C   0  0  0  0  0  0  0  0  0  0  0  0
  -19.2856    2.6361  -22.8876 C   0  0  0  0  0  0  0  0  0  0  0  0
  -19.5203    3.7629  -22.4671 O   0  0  0  0  0  0  0  0  0  0  0  0
  -18.0125    2.1108  -22.8812 N   0  0  0  0  0  0  0  0  0  0  0  0
  -17.6800    0.8604  -23.3644 C   0  0  0  0  0  0  0  0  0  0  0  0
  -16.2275    0.4881  -23.2670 C   0  0  0  0  0  0  0  0  0  0  0  0
  -15.7357   -0.8862  -23.5272 C   0  0  0  0  0  0  0  0  0  0  0  0
  -16.5097   -1.7855  -23.8481 O   0  0  0  0  0  0  0  0  0  0  0  0
  -14.3741   -1.1246  -23.3973 O   0  0  0  0  0  0  0  0  0  0  0  0
  -13.4819   -0.0980  -23.0452 C   0  0  0  0  0  0  0  0  0  0  0  0
  -13.9431    1.1928  -22.8103 C   0  0  0  0  0  0  0  0  0  0  0  0
  -13.0250    2.1884  -22.4661 C   0  0  0  0  0  0  0  0  0  0  0  0
  -11.6640    1.8810  -22.3620 C   0  0  0  0  0  0  0  0  0  0  0  0
  -11.2312    0.5780  -22.6022 C   0  0  0  0  0  0  0  0  0  0  0  0
   -9.9141    0.2404  -22.5107 O   0  0  0  0  0  0  0  0  0  0  0  0
  -12.1323   -0.4219  -22.9447 C   0  0  0  0  0  0  0  0  0  0  0  0
  -15.3660    1.4627  -22.9297 C   0  0  0  0  0  0  0  0  0  0  0  0
  -18.5650    0.0525  -23.8747 N   0  0  0  0  0  0  0  0  0  0  0  0
  -19.8379    0.5232  -23.9036 C   0  0  0  0  0  0  0  0  0  0  0  0
  -21.0958   -0.4009  -24.5669 S   0  0  0  0  0  0  0  0  0  0  0  0
  -23.1874   -1.2751  -25.2024 H   0  0  0  0  0  0  0  0  0  0  0  0
  -24.7162   -3.2226  -25.7508 H   0  0  0  0  0  0  0  0  0  0  0  0
  -26.9077   -4.8765  -25.7414 H   0  0  0  0  0  0  0  0  0  0  0  0
  -26.2290   -4.7197  -27.3848 H   0  0  0  0  0  0  0  0  0  0  0  0
  -27.9610   -4.4856  -27.1109 H   0  0  0  0  0  0  0  0  0  0  0  0
  -28.6684   -2.1983  -27.0681 H   0  0  0  0  0  0  0  0  0  0  0  0
  -28.2008    0.1885  -26.6433 H   0  0  0  0  0  0  0  0  0  0  0  0
  -26.0125    0.8978  -25.7773 H   0  0  0  0  0  0  0  0  0  0  0  0
  -23.4685    2.8977  -22.8466 H   0  0  0  0  0  0  0  0  0  0  0  0
  -22.5106    3.8627  -23.9955 H   0  0  0  0  0  0  0  0  0  0  0  0
  -21.9723    3.6215  -22.3203 H   0  0  0  0  0  0  0  0  0  0  0  0
  -17.2973    2.7285  -22.5020 H   0  0  0  0  0  0  0  0  0  0  0  0
  -13.3548    3.2075  -22.2767 H   0  0  0  0  0  0  0  0  0  0  0  0
  -10.9622    2.6654  -22.0943 H   0  0  0  0  0  0  0  0  0  0  0  0
   -9.8138   -0.4735  -21.8595 H   0  0  0  0  0  0  0  0  0  0  0  0
  -11.7874   -1.4341  -23.1305 H   0  0  0  0  0  0  0  0  0  0  0  0
  -15.6971    2.4792  -22.7343 H   0  0  0  0  0  0  0  0  0  0  0  0
  1  2  2  0  0  0  0
  2  3  1  0  0  0  0
  2 11  1  0  0  0  0
  3 34  1  0  0  0  0
  3  4  1  0  0  0  0
  4 10  2  0  0  0  0
  4  5  1  0  0  0  0
  5  6  2  0  0  0  0
  5 35  1  0  0  0  0
  6  8  1  0  0  0  0
  6  7  1  0  0  0  0
  7 36  1  0  0  0  0
  7 37  1  0  0  0  0
  7 38  1  0  0  0  0
  8  9  2  0  0  0  0
  8 39  1  0  0  0  0
  9 10  1  0  0  0  0
  9 40  1  0  0  0  0
 10 41  1  0  0  0  0
 11 12  2  0  0  0  0
 11 33  1  0  0  0  0
 12 13  1  0  0  0  0
 12 14  1  0  0  0  0
 13 42  1  0  0  0  0
 13 43  1  0  0  0  0
 13 44  1  0  0  0  0
 14 32  2  0  0  0  0
 14 15  1  0  0  0  0
 15 17  1  0  0  0  0
 15 16  2  0  0  0  0
 17 18  1  0  0  0  0
 17 45  1  0  0  0  0
 18 19  1  0  0  0  0
 18 31  2  0  0  0  0
 19 20  1  0  0  0  0
 19 30  2  0  0  0  0
 20 21  2  0  0  0  0
 20 22  1  0  0  0  0
 22 23  1  0  0  0  0
 23 24  2  0  0  0  0
 23 29  1  0  0  0  0
 24 30  1  0  0  0  0
 24 25  1  0  0  0  0
 25 46  1  0  0  0  0
 25 26  2  0  0  0  0
 26 47  1  0  0  0  0
 26 27  1  0  0  0  0
 27 29  2  0  0  0  0
 27 28  1  0  0  0  0
 28 48  1  0  0  0  0
 29 49  1  0  0  0  0
 30 50  1  0  0  0  0
 31 32  1  0  0  0  0
 32 33  1  0  0  0  0
M  END
$$$$
