*****_entry_00001_conf_01
 OpenBabel06232217283D

 65 69  0  0  1  0  0  0  0  0999 V2000
  -12.2401    0.0537  -23.5801 S   0  0  0  0  0  0  0  0  0  0  0  0
  -12.9146   -1.2101  -22.4615 C   0  0  0  0  0  0  0  0  0  0  0  0
  -14.0472   -2.0260  -23.0871 C   0  0  0  0  0  0  0  0  0  0  0  0
  -13.9163   -3.2152  -23.3871 O   0  0  0  0  0  0  0  0  0  0  0  0
  -15.2597   -1.3613  -23.3040 N   0  0  0  0  0  0  0  0  0  0  0  0
  -15.5384   -0.0043  -22.8005 C   0  0  0  0  0  0  0  0  0  0  0  0
  -16.7423    0.6705  -23.4911 C   0  0  0  0  0  0  0  0  0  0  0  0
  -17.9067   -0.2285  -23.4284 N   0  3  0  0  0  0  0  0  0  0  0  0
  -19.1722    0.3027  -23.7020 C   0  0  0  0  0  0  0  0  0  0  0  0
  -20.2231   -0.4338  -24.2665 C   0  0  0  0  0  0  0  0  0  0  0  0
  -21.4639    0.1626  -24.5188 C   0  0  0  0  0  0  0  0  0  0  0  0
  -21.6582    1.5035  -24.2155 C   0  0  0  0  0  0  0  0  0  0  0  0
  -22.8445    2.0734  -24.4638 F   0  0  0  0  0  0  0  0  0  0  0  0
  -20.6382    2.2596  -23.6596 C   0  0  0  0  0  0  0  0  0  0  0  0
  -19.4052    1.6574  -23.4021 C   0  0  0  0  0  0  0  0  0  0  0  0
  -17.6503   -1.5041  -24.1343 C   0  0  0  0  0  0  0  0  0  0  0  0
  -16.4399   -2.2182  -23.5084 C   0  0  0  0  0  0  0  0  0  0  0  0
  -12.9142    1.4719  -22.8389 C   0  0  0  0  0  0  0  0  0  0  0  0
  -13.6398    2.3148  -23.4943 N   0  0  0  0  0  0  0  0  0  0  0  0
  -14.1067    3.3961  -22.7769 C   0  0  0  0  0  0  0  0  0  0  0  0
  -13.8856    3.5930  -21.4675 C   0  0  0  0  0  0  0  0  0  0  0  0
  -13.0697    2.5912  -20.7529 C   0  0  0  0  0  0  0  0  0  0  0  0
  -12.8662    2.6570  -19.5457 O   0  0  0  0  0  0  0  0  0  0  0  0
  -12.5792    1.5890  -21.5296 N   0  0  0  0  0  0  0  0  0  0  0  0
  -14.4571    4.7224  -20.6665 C   0  0  0  0  0  0  0  0  0  0  0  0
  -15.1673    5.7666  -21.4480 N   0  3  2  0  0  0  0  0  0  0  0  0
  -16.0584    6.5056  -20.5288 C   0  0  0  0  0  0  0  0  0  0  0  0
  -15.4083    7.6509  -19.7796 C   0  0  0  0  0  0  0  0  0  0  0  0
  -16.1151    8.8478  -19.5646 C   0  0  0  0  0  0  0  0  0  0  0  0
  -15.5280    9.9033  -18.8670 C   0  0  0  0  0  0  0  0  0  0  0  0
  -14.2390    9.7601  -18.3704 C   0  0  0  0  0  0  0  0  0  0  0  0
  -13.6795   10.7703  -17.6914 F   0  0  0  0  0  0  0  0  0  0  0  0
  -13.5228    8.5850  -18.5663 C   0  0  0  0  0  0  0  0  0  0  0  0
  -14.1028    7.5326  -19.2786 C   0  0  0  0  0  0  0  0  0  0  0  0
  -15.8973    5.1678  -22.5782 C   0  0  0  0  0  0  0  0  0  0  0  0
  -14.9694    4.3798  -23.5192 C   0  0  0  0  0  0  0  0  0  0  0  0
  -13.3033   -0.6806  -21.5872 H   0  0  0  0  0  0  0  0  0  0  0  0
  -12.1100   -1.8820  -22.1481 H   0  0  0  0  0  0  0  0  0  0  0  0
  -14.6571    0.6297  -22.9310 H   0  0  0  0  0  0  0  0  0  0  0  0
  -15.7271   -0.0979  -21.7244 H   0  0  0  0  0  0  0  0  0  0  0  0
  -16.4853    0.8908  -24.5356 H   0  0  0  0  0  0  0  0  0  0  0  0
  -16.9516    1.6181  -22.9803 H   0  0  0  0  0  0  0  0  0  0  0  0
  -20.1039   -1.4867  -24.5022 H   0  0  0  0  0  0  0  0  0  0  0  0
  -22.2779   -0.4122  -24.9485 H   0  0  0  0  0  0  0  0  0  0  0  0
  -20.8009    3.3084  -23.4356 H   0  0  0  0  0  0  0  0  0  0  0  0
  -18.6013    2.2590  -22.9835 H   0  0  0  0  0  0  0  0  0  0  0  0
  -17.4511   -1.3024  -25.1952 H   0  0  0  0  0  0  0  0  0  0  0  0
  -18.5130   -2.1793  -24.0818 H   0  0  0  0  0  0  0  0  0  0  0  0
  -16.1742   -3.0827  -24.1267 H   0  0  0  0  0  0  0  0  0  0  0  0
  -16.7162   -2.5998  -22.5171 H   0  0  0  0  0  0  0  0  0  0  0  0
  -12.0740    0.8414  -21.0819 H   0  0  0  0  0  0  0  0  0  0  0  0
  -13.6488    5.2161  -20.1126 H   0  0  0  0  0  0  0  0  0  0  0  0
  -15.1368    4.2764  -19.9272 H   0  0  0  0  0  0  0  0  0  0  0  0
  -16.4535    5.8084  -19.7764 H   0  0  0  0  0  0  0  0  0  0  0  0
  -16.9373    6.8916  -21.0638 H   0  0  0  0  0  0  0  0  0  0  0  0
  -17.1264    8.9629  -19.9482 H   0  0  0  0  0  0  0  0  0  0  0  0
  -16.0667   10.8314  -18.7073 H   0  0  0  0  0  0  0  0  0  0  0  0
  -12.5187    8.4961  -18.1645 H   0  0  0  0  0  0  0  0  0  0  0  0
  -13.5373    6.6164  -19.4346 H   0  0  0  0  0  0  0  0  0  0  0  0
  -16.3661    5.9490  -23.1866 H   0  0  0  0  0  0  0  0  0  0  0  0
  -16.6972    4.5087  -22.2148 H   0  0  0  0  0  0  0  0  0  0  0  0
  -14.3204    5.0718  -24.0712 H   0  0  0  0  0  0  0  0  0  0  0  0
  -15.5884    3.8562  -24.2577 H   0  0  0  0  0  0  0  0  0  0  0  0
  -17.9534   -0.5165  -22.3885 H   0  0  0  0  0  0  0  0  0  0  0  0
  -14.4338    6.4556  -21.8401 H   0  0  0  0  0  0  0  0  0  0  0  0
  1  2  1  0  0  0  0
  1 18  1  0  0  0  0
  2  3  1  0  0  0  0
  2 37  1  0  0  0  0
  2 38  1  0  0  0  0
  3  4  2  0  0  0  0
  3  5  1  0  0  0  0
  5  6  1  0  0  0  0
  5 17  1  0  0  0  0
  6  7  1  0  0  0  0
  6 39  1  0  0  0  0
  6 40  1  0  0  0  0
  7  8  1  0  0  0  0
  7 41  1  0  0  0  0
  7 42  1  0  0  0  0
  8  9  1  0  0  0  0
  8 16  1  0  0  0  0
  8 64  1  0  0  0  0
  9 10  2  0  0  0  0
  9 15  1  0  0  0  0
 10 11  1  0  0  0  0
 10 43  1  0  0  0  0
 11 44  1  0  0  0  0
 11 12  2  0  0  0  0
 12 13  1  0  0  0  0
 12 14  1  0  0  0  0
 14 15  2  0  0  0  0
 14 45  1  0  0  0  0
 15 46  1  0  0  0  0
 16 17  1  0  0  0  0
 16 47  1  0  0  0  0
 16 48  1  0  0  0  0
 17 49  1  0  0  0  0
 17 50  1  0  0  0  0
 18 19  2  0  0  0  0
 18 24  1  0  0  0  0
 19 20  1  0  0  0  0
 20 21  2  0  0  0  0
 20 36  1  0  0  0  0
 21 25  1  0  0  0  0
 21 22  1  0  0  0  0
 22 23  2  0  0  0  0
 22 24  1  0  0  0  0
 24 51  1  0  0  0  0
 25 26  1  0  0  0  0
 25 52  1  0  0  0  0
 25 53  1  0  0  0  0
 26 27  1  0  0  0  0
 26 35  1  0  0  0  0
 26 65  1  6  0  0  0
 27 28  1  0  0  0  0
 27 54  1  0  0  0  0
 27 55  1  0  0  0  0
 28 29  2  0  0  0  0
 28 34  1  0  0  0  0
 29 30  1  0  0  0  0
 29 56  1  0  0  0  0
 30 57  1  0  0  0  0
 30 31  2  0  0  0  0
 31 32  1  0  0  0  0
 31 33  1  0  0  0  0
 33 34  2  0  0  0  0
 33 58  1  0  0  0  0
 34 59  1  0  0  0  0
 35 36  1  0  0  0  0
 35 60  1  0  0  0  0
 35 61  1  0  0  0  0
 36 62  1  0  0  0  0
 36 63  1  0  0  0  0
M  CHG  2   8   1  26   1
M  END
$$$$
