*****_entry_00001_conf_01
 OpenBabel06232217283D

 43 45  0  0  0  0  0  0  0  0999 V2000
  -17.3565   -2.6859  -23.9648 O   0  0  0  0  0  0  0  0  0  0  0  0
  -17.0305   -1.5258  -23.7392 C   0  0  0  0  0  0  0  0  0  0  0  0
  -17.9145   -0.4742  -23.6909 N   0  0  0  0  0  0  0  0  0  0  0  0
  -19.3398   -0.6286  -23.8559 C   0  0  0  0  0  0  0  0  0  0  0  0
  -20.0484    0.6912  -23.6813 C   0  0  0  0  0  0  0  0  0  0  0  0
  -21.3370    0.9164  -24.1943 C   0  0  0  0  0  0  0  0  0  0  0  0
  -21.9072   -0.1332  -24.8670 O   0  0  0  0  0  0  0  0  0  0  0  0
  -23.2368    0.0406  -25.3417 C   0  0  0  0  0  0  0  0  0  0  0  0
  -21.9506    2.1574  -23.9883 C   0  0  0  0  0  0  0  0  0  0  0  0
  -21.3045    3.1749  -23.2762 C   0  0  0  0  0  0  0  0  0  0  0  0
  -22.0263    4.3319  -23.1564 O   0  0  0  0  0  0  0  0  0  0  0  0
  -21.4212    5.3954  -22.4315 C   0  0  0  0  0  0  0  0  0  0  0  0
  -20.0318    2.9482  -22.7599 C   0  0  0  0  0  0  0  0  0  0  0  0
  -19.4115    1.7125  -22.9564 C   0  0  0  0  0  0  0  0  0  0  0  0
  -15.5977   -1.1578  -23.4877 C   0  0  0  0  0  0  0  0  0  0  0  0
  -15.3362    0.1533  -23.2137 N   0  0  0  0  0  0  0  0  0  0  0  0
  -14.0455    0.4867  -22.9860 C   0  0  0  0  0  0  0  0  0  0  0  0
  -13.7114    1.8104  -22.7034 C   0  0  0  0  0  0  0  0  0  0  0  0
  -14.6986    2.7657  -22.6583 O   0  0  0  0  0  0  0  0  0  0  0  0
  -12.4037    2.2241  -22.4606 C   0  0  0  0  0  0  0  0  0  0  0  0
  -11.3760    1.2888  -22.4978 C   0  0  0  0  0  0  0  0  0  0  0  0
  -11.6674   -0.0468  -22.7759 C   0  0  0  0  0  0  0  0  0  0  0  0
  -12.9923   -0.4537  -23.0199 C   0  0  0  0  0  0  0  0  0  0  0  0
  -13.3077   -1.7881  -23.3015 C   0  0  0  0  0  0  0  0  0  0  0  0
  -14.6282   -2.1491  -23.5396 C   0  0  0  0  0  0  0  0  0  0  0  0
  -17.5438    0.4455  -23.4828 H   0  0  0  0  0  0  0  0  0  0  0  0
  -19.6803   -1.3651  -23.1203 H   0  0  0  0  0  0  0  0  0  0  0  0
  -19.5722   -1.0510  -24.8403 H   0  0  0  0  0  0  0  0  0  0  0  0
  -23.5079   -0.8554  -25.9083 H   0  0  0  0  0  0  0  0  0  0  0  0
  -23.3091    0.8963  -26.0213 H   0  0  0  0  0  0  0  0  0  0  0  0
  -23.9404    0.1336  -24.5081 H   0  0  0  0  0  0  0  0  0  0  0  0
  -22.9453    2.3687  -24.3674 H   0  0  0  0  0  0  0  0  0  0  0  0
  -22.1277    6.2308  -22.4122 H   0  0  0  0  0  0  0  0  0  0  0  0
  -20.5090    5.7424  -22.9280 H   0  0  0  0  0  0  0  0  0  0  0  0
  -21.2221    5.1043  -21.3949 H   0  0  0  0  0  0  0  0  0  0  0  0
  -19.4945    3.7054  -22.1992 H   0  0  0  0  0  0  0  0  0  0  0  0
  -18.4199    1.5424  -22.5390 H   0  0  0  0  0  0  0  0  0  0  0  0
  -14.2521    3.5639  -22.3108 H   0  0  0  0  0  0  0  0  0  0  0  0
  -12.1942    3.2681  -22.2458 H   0  0  0  0  0  0  0  0  0  0  0  0
  -10.3504    1.5977  -22.3114 H   0  0  0  0  0  0  0  0  0  0  0  0
  -10.8540   -0.7693  -22.8020 H   0  0  0  0  0  0  0  0  0  0  0  0
  -12.5323   -2.5496  -23.3372 H   0  0  0  0  0  0  0  0  0  0  0  0
  -14.8937   -3.1784  -23.7595 H   0  0  0  0  0  0  0  0  0  0  0  0
  1  2  2  0  0  0  0
  2 15  1  0  0  0  0
  2  3  1  0  0  0  0
  3  4  1  0  0  0  0
  3 26  1  0  0  0  0
  4 27  1  0  0  0  0
  4  5  1  0  0  0  0
  4 28  1  0  0  0  0
  5  6  2  0  0  0  0
  5 14  1  0  0  0  0
  6  7  1  0  0  0  0
  6  9  1  0  0  0  0
  7  8  1  0  0  0  0
  8 29  1  0  0  0  0
  8 30  1  0  0  0  0
  8 31  1  0  0  0  0
  9 10  2  0  0  0  0
  9 32  1  0  0  0  0
 10 11  1  0  0  0  0
 10 13  1  0  0  0  0
 11 12  1  0  0  0  0
 12 33  1  0  0  0  0
 12 35  1  0  0  0  0
 12 34  1  0  0  0  0
 13 14  2  0  0  0  0
 13 36  1  0  0  0  0
 14 37  1  0  0  0  0
 15 25  2  0  0  0  0
 15 16  1  0  0  0  0
 16 17  2  0  0  0  0
 17 18  1  0  0  0  0
 17 23  1  0  0  0  0
 18 19  1  0  0  0  0
 18 20  2  0  0  0  0
 19 38  1  0  0  0  0
 20 21  1  0  0  0  0
 20 39  1  0  0  0  0
 21 22  2  0  0  0  0
 21 40  1  0  0  0  0
 22 23  1  0  0  0  0
 22 41  1  0  0  0  0
 23 24  2  0  0  0  0
 24 25  1  0  0  0  0
 24 42  1  0  0  0  0
 25 43  1  0  0  0  0
M  END
$$$$
