*****_entry_00001_conf_01
 OpenBabel06232217283D

 48 50  0  0  0  0  0  0  0  0999 V2000
  -29.2093   -2.2736  -21.3627 Cl  0  0  0  0  0  0  0  0  0  0  0  0
  -27.7652   -1.2320  -21.2327 C   0  0  0  0  0  0  0  0  0  0  0  0
  -27.3721   -0.7060  -22.6111 C   0  0  0  0  0  0  0  0  0  0  0  0
  -26.1647    0.2014  -22.5886 N   0  0  0  0  0  0  0  0  0  0  0  0
  -25.5371    0.5041  -24.1740 S   0  0  0  0  0  0  0  0  0  0  0  0
  -25.7941   -0.6813  -24.9681 O   0  0  0  0  0  0  0  0  0  0  0  0
  -25.9563    1.8076  -24.6259 O   0  0  0  0  0  0  0  0  0  0  0  0
  -23.7916    0.5995  -23.8437 C   0  0  0  0  0  0  0  0  0  0  0  0
  -23.2118    1.8127  -23.4642 C   0  0  0  0  0  0  0  0  0  0  0  0
  -21.8224    1.9048  -23.3636 C   0  0  0  0  0  0  0  0  0  0  0  0
  -21.0220    0.7831  -23.6350 C   0  0  0  0  0  0  0  0  0  0  0  0
  -19.5368    0.8804  -23.7645 C   0  0  0  0  0  0  0  0  0  0  0  0
  -19.0141    1.9852  -23.7241 O   0  0  0  0  0  0  0  0  0  0  0  0
  -18.9117   -0.3414  -23.8489 N   0  0  0  0  0  0  0  0  0  0  0  0
  -17.5633   -0.5080  -23.7072 C   0  0  0  0  0  0  0  0  0  0  0  0
  -17.1090   -2.1510  -23.6549 S   0  0  0  0  0  0  0  0  0  0  0  0
  -15.4718   -1.6783  -23.4208 C   0  0  0  0  0  0  0  0  0  0  0  0
  -15.4050   -0.2834  -23.3812 C   0  0  0  0  0  0  0  0  0  0  0  0
  -16.6121    0.3736  -23.5670 N   0  0  0  0  0  0  0  0  0  0  0  0
  -14.1516    0.3243  -23.1596 C   0  0  0  0  0  0  0  0  0  0  0  0
  -13.0025   -0.4653  -22.9840 C   0  0  0  0  0  0  0  0  0  0  0  0
  -11.6661    0.1833  -22.7700 C   0  0  0  0  0  0  0  0  0  0  0  0
  -13.1022   -1.8565  -23.0663 C   0  0  0  0  0  0  0  0  0  0  0  0
  -14.3331   -2.4847  -23.2770 C   0  0  0  0  0  0  0  0  0  0  0  0
  -21.6228   -0.4551  -23.8995 C   0  0  0  0  0  0  0  0  0  0  0  0
  -23.0106   -0.5488  -24.0089 C   0  0  0  0  0  0  0  0  0  0  0  0
  -26.3783    1.4276  -21.7476 C   0  0  0  0  0  0  0  0  0  0  0  0
  -27.3891    2.4331  -22.3079 C   0  0  0  0  0  0  0  0  0  0  0  0
  -27.5649    3.8684  -21.2660 Cl  0  0  0  0  0  0  0  0  0  0  0  0
  -26.9638   -1.8233  -20.7820 H   0  0  0  0  0  0  0  0  0  0  0  0
  -28.0302   -0.4225  -20.5485 H   0  0  0  0  0  0  0  0  0  0  0  0
  -28.2150   -0.1714  -23.0656 H   0  0  0  0  0  0  0  0  0  0  0  0
  -27.1532   -1.5740  -23.2404 H   0  0  0  0  0  0  0  0  0  0  0  0
  -23.8266    2.6937  -23.2907 H   0  0  0  0  0  0  0  0  0  0  0  0
  -21.3816    2.8590  -23.0875 H   0  0  0  0  0  0  0  0  0  0  0  0
  -19.4384   -1.1986  -23.8837 H   0  0  0  0  0  0  0  0  0  0  0  0
  -14.0983    1.4087  -23.1215 H   0  0  0  0  0  0  0  0  0  0  0  0
  -11.7753    1.1491  -22.2660 H   0  0  0  0  0  0  0  0  0  0  0  0
  -11.1671    0.3384  -23.7312 H   0  0  0  0  0  0  0  0  0  0  0  0
  -11.0288   -0.4425  -22.1359 H   0  0  0  0  0  0  0  0  0  0  0  0
  -12.2114   -2.4737  -22.9592 H   0  0  0  0  0  0  0  0  0  0  0  0
  -14.4032   -3.5669  -23.3260 H   0  0  0  0  0  0  0  0  0  0  0  0
  -21.0072   -1.3374  -24.0707 H   0  0  0  0  0  0  0  0  0  0  0  0
  -23.4686   -1.5038  -24.2607 H   0  0  0  0  0  0  0  0  0  0  0  0
  -25.4281    1.9660  -21.6676 H   0  0  0  0  0  0  0  0  0  0  0  0
  -26.6502    1.1327  -20.7285 H   0  0  0  0  0  0  0  0  0  0  0  0
  -28.3747    1.9596  -22.3642 H   0  0  0  0  0  0  0  0  0  0  0  0
  -27.1470    2.7638  -23.3185 H   0  0  0  0  0  0  0  0  0  0  0  0
  1  2  1  0  0  0  0
  2  3  1  0  0  0  0
  2 30  1  0  0  0  0
  2 31  1  0  0  0  0
  3 32  1  0  0  0  0
  3 33  1  0  0  0  0
  3  4  1  0  0  0  0
  4  5  1  0  0  0  0
  4 27  1  0  0  0  0
  5  6  2  0  0  0  0
  5  7  2  0  0  0  0
  5  8  1  0  0  0  0
  8  9  2  0  0  0  0
  8 26  1  0  0  0  0
  9 10  1  0  0  0  0
  9 34  1  0  0  0  0
 10 11  2  0  0  0  0
 10 35  1  0  0  0  0
 11 12  1  0  0  0  0
 11 25  1  0  0  0  0
 12 13  2  0  0  0  0
 12 14  1  0  0  0  0
 14 36  1  0  0  0  0
 14 15  1  0  0  0  0
 15 16  1  0  0  0  0
 15 19  2  0  0  0  0
 16 17  1  0  0  0  0
 17 18  2  0  0  0  0
 17 24  1  0  0  0  0
 18 19  1  0  0  0  0
 18 20  1  0  0  0  0
 20 37  1  0  0  0  0
 20 21  2  0  0  0  0
 21 22  1  0  0  0  0
 21 23  1  0  0  0  0
 22 38  1  0  0  0  0
 22 39  1  0  0  0  0
 22 40  1  0  0  0  0
 23 24  2  0  0  0  0
 23 41  1  0  0  0  0
 24 42  1  0  0  0  0
 25 26  2  0  0  0  0
 25 43  1  0  0  0  0
 26 44  1  0  0  0  0
 27 45  1  0  0  0  0
 27 28  1  0  0  0  0
 27 46  1  0  0  0  0
 28 29  1  0  0  0  0
 28 47  1  0  0  0  0
 28 48  1  0  0  0  0
M  END
$$$$
