*****_entry_00001_conf_01
 OpenBabel06232217283D

 42 45  0  0  0  0  0  0  0  0999 V2000
  -16.5897    4.5193  -23.1842 S   0  0  0  0  0  0  0  0  0  0  0  0
  -17.8748    5.3075  -22.1753 C   0  0  0  0  0  0  0  0  0  0  0  0
  -17.4687    6.7205  -21.7703 C   0  0  0  0  0  0  0  0  0  0  0  0
  -16.6450    7.3535  -22.4252 O   0  0  0  0  0  0  0  0  0  0  0  0
  -18.1079    7.1644  -20.6238 N   0  0  0  0  0  0  0  0  0  0  0  0
  -17.8889    8.3732  -19.9296 C   0  0  0  0  0  0  0  0  0  0  0  0
  -16.7598    9.1751  -20.0926 C   0  0  0  0  0  0  0  0  0  0  0  0
  -16.6290   10.3455  -19.3479 C   0  0  0  0  0  0  0  0  0  0  0  0
  -15.5408   11.1103  -19.5102 F   0  0  0  0  0  0  0  0  0  0  0  0
  -17.6016   10.7361  -18.4358 C   0  0  0  0  0  0  0  0  0  0  0  0
  -18.7300    9.9418  -18.2630 C   0  0  0  0  0  0  0  0  0  0  0  0
  -18.8711    8.7664  -19.0068 C   0  0  0  0  0  0  0  0  0  0  0  0
  -17.2465    2.9198  -23.3264 C   0  0  0  0  0  0  0  0  0  0  0  0
  -16.5002    1.8571  -23.2869 N   0  0  0  0  0  0  0  0  0  0  0  0
  -17.2060    0.6984  -23.4335 C   0  0  0  0  0  0  0  0  0  0  0  0
  -16.7279   -0.6118  -23.4165 N   0  0  0  0  0  0  0  0  0  0  0  0
  -15.3901   -1.0902  -23.2767 C   0  0  0  0  0  0  0  0  0  0  0  0
  -15.0965   -2.4562  -23.1775 C   0  0  0  0  0  0  0  0  0  0  0  0
  -13.7699   -2.8884  -23.0795 C   0  0  0  0  0  0  0  0  0  0  0  0
  -12.7295   -1.9622  -23.0632 C   0  0  0  0  0  0  0  0  0  0  0  0
  -13.0116   -0.6005  -23.1318 C   0  0  0  0  0  0  0  0  0  0  0  0
  -14.3343   -0.1642  -23.2355 C   0  0  0  0  0  0  0  0  0  0  0  0
  -17.7616   -1.5048  -23.5389 N   0  0  0  0  0  0  0  0  0  0  0  0
  -18.8584   -0.7557  -23.6664 C   0  0  0  0  0  0  0  0  0  0  0  0
  -18.5696    0.6036  -23.6023 C   0  0  0  0  0  0  0  0  0  0  0  0
  -19.3630    1.7968  -23.6586 C   0  0  0  0  0  0  0  0  0  0  0  0
  -20.5744    1.8111  -23.8253 O   0  0  0  0  0  0  0  0  0  0  0  0
  -18.6071    2.9377  -23.5070 N   0  0  0  0  0  0  0  0  0  0  0  0
  -18.0083    4.7266  -21.2567 H   0  0  0  0  0  0  0  0  0  0  0  0
  -18.8326    5.2907  -22.7041 H   0  0  0  0  0  0  0  0  0  0  0  0
  -18.8707    6.5963  -20.2757 H   0  0  0  0  0  0  0  0  0  0  0  0
  -15.9606    8.9272  -20.7810 H   0  0  0  0  0  0  0  0  0  0  0  0
  -17.4715   11.6526  -17.8696 H   0  0  0  0  0  0  0  0  0  0  0  0
  -19.5000   10.2331  -17.5533 H   0  0  0  0  0  0  0  0  0  0  0  0
  -19.7632    8.1654  -18.8496 H   0  0  0  0  0  0  0  0  0  0  0  0
  -15.8739   -3.2102  -23.1435 H   0  0  0  0  0  0  0  0  0  0  0  0
  -13.5474   -3.9501  -23.0035 H   0  0  0  0  0  0  0  0  0  0  0  0
  -11.6992   -2.2996  -22.9821 H   0  0  0  0  0  0  0  0  0  0  0  0
  -12.2037    0.1267  -23.1025 H   0  0  0  0  0  0  0  0  0  0  0  0
  -14.5249    0.9068  -23.2909 H   0  0  0  0  0  0  0  0  0  0  0  0
  -19.8196   -1.2397  -23.7896 H   0  0  0  0  0  0  0  0  0  0  0  0
  -19.0910    3.8222  -23.5234 H   0  0  0  0  0  0  0  0  0  0  0  0
  1  2  1  0  0  0  0
  1 13  1  0  0  0  0
  2 29  1  0  0  0  0
  2 30  1  0  0  0  0
  2  3  1  0  0  0  0
  3  4  2  0  0  0  0
  3  5  1  0  0  0  0
  5 31  1  0  0  0  0
  5  6  1  0  0  0  0
  6  7  2  0  0  0  0
  6 12  1  0  0  0  0
  7  8  1  0  0  0  0
  7 32  1  0  0  0  0
  8  9  1  0  0  0  0
  8 10  2  0  0  0  0
 10 11  1  0  0  0  0
 10 33  1  0  0  0  0
 11 12  2  0  0  0  0
 11 34  1  0  0  0  0
 12 35  1  0  0  0  0
 13 28  1  0  0  0  0
 13 14  2  0  0  0  0
 14 15  1  0  0  0  0
 15 25  2  0  0  0  0
 15 16  1  0  0  0  0
 16 17  1  0  0  0  0
 16 23  1  0  0  0  0
 17 18  2  0  0  0  0
 17 22  1  0  0  0  0
 18 36  1  0  0  0  0
 18 19  1  0  0  0  0
 19 20  2  0  0  0  0
 19 37  1  0  0  0  0
 20 21  1  0  0  0  0
 20 38  1  0  0  0  0
 21 22  2  0  0  0  0
 21 39  1  0  0  0  0
 22 40  1  0  0  0  0
 23 24  2  0  0  0  0
 24 25  1  0  0  0  0
 24 41  1  0  0  0  0
 25 26  1  0  0  0  0
 26 27  2  0  0  0  0
 26 28  1  0  0  0  0
 28 42  1  0  0  0  0
M  END
$$$$
