*****_entry_00001_conf_01
 OpenBabel06232217283D

 67 71  0  0  1  0  0  0  0  0999 V2000
  -20.2016   -0.2682  -24.5667 O   0  0  0  0  0  0  0  0  0  0  0  0
  -19.8956    0.6987  -23.8750 C   0  0  0  0  0  0  0  0  0  0  0  0
  -18.6022    0.9676  -23.4873 N   0  0  0  0  0  0  0  0  0  0  0  0
  -17.5023    0.2477  -24.0727 C   0  0  0  0  0  0  0  0  0  0  0  0
  -16.1966    0.6085  -23.4218 C   0  0  0  0  0  0  0  0  0  0  0  0
  -15.1459   -0.3107  -23.3568 C   0  0  0  0  0  0  0  0  0  0  0  0
  -13.9290    0.0378  -22.7563 C   0  0  0  0  0  0  0  0  0  0  0  0
  -13.7313    1.3037  -22.1883 C   0  0  0  0  0  0  0  0  0  0  0  0
  -12.5329    1.6990  -21.5664 N   0  3  0  0  0  0  0  0  0  0  0  0
  -12.5655    2.9134  -20.7539 C   0  0  0  0  0  0  0  0  0  0  0  0
  -11.3803    1.6029  -22.4665 C   0  0  0  0  0  0  0  0  0  0  0  0
  -14.7978    2.2145  -22.2587 C   0  0  0  0  0  0  0  0  0  0  0  0
  -16.0127    1.8773  -22.8633 C   0  0  0  0  0  0  0  0  0  0  0  0
  -20.9454    1.6678  -23.3154 C   0  0  0  0  0  0  0  0  0  0  0  0
  -22.0207    2.0116  -24.2920 N   0  3  0  0  0  0  0  0  0  0  0  0
  -22.7149    3.2910  -23.9427 C   0  0  2  0  0  0  0  0  0  0  0  0
  -23.9137    3.1806  -23.0257 C   0  0  0  0  0  0  0  0  0  0  0  0
  -25.0301    2.5931  -23.5590 O   0  0  0  0  0  0  0  0  0  0  0  0
  -25.9740    2.5708  -22.5850 C   0  0  0  0  0  0  0  0  0  0  0  0
  -25.4864    3.1283  -21.4275 C   0  0  0  0  0  0  0  0  0  0  0  0
  -24.1587    3.5289  -21.7108 C   0  0  0  0  0  0  0  0  0  0  0  0
  -22.9191    4.1218  -25.1893 C   0  0  0  0  0  0  0  0  0  0  0  0
  -22.5367    5.5666  -25.0436 C   0  0  0  0  0  0  0  0  0  0  0  0
  -22.1115    6.0090  -23.9768 O   0  0  0  0  0  0  0  0  0  0  0  0
  -22.6221    6.4736  -26.2463 C   0  0  0  0  0  0  0  0  0  0  0  0
  -23.7779    6.0667  -27.1302 C   0  0  0  0  0  0  0  0  0  0  0  0
  -23.6236    4.6128  -27.5425 C   0  0  0  0  0  0  0  0  0  0  0  0
  -23.4027    3.6693  -26.3664 C   0  0  0  0  0  0  0  0  0  0  0  0
  -23.8185    2.3810  -26.6321 N   0  0  0  0  0  0  0  0  0  0  0  0
  -23.7144    1.1838  -25.8893 C   0  0  0  0  0  0  0  0  0  0  0  0
  -22.8902    0.9940  -24.7507 C   0  0  0  0  0  0  0  0  0  0  0  0
  -22.9184   -0.2807  -24.1401 C   0  0  0  0  0  0  0  0  0  0  0  0
  -23.7286   -1.3199  -24.6062 C   0  0  0  0  0  0  0  0  0  0  0  0
  -24.5447   -1.1182  -25.7041 C   0  0  0  0  0  0  0  0  0  0  0  0
  -24.5395    0.1224  -26.3322 C   0  0  0  0  0  0  0  0  0  0  0  0
  -18.4516    1.9001  -23.1082 H   0  0  0  0  0  0  0  0  0  0  0  0
  -17.4594    0.4724  -25.1455 H   0  0  0  0  0  0  0  0  0  0  0  0
  -17.7096   -0.8251  -23.9826 H   0  0  0  0  0  0  0  0  0  0  0  0
  -15.2624   -1.3084  -23.7748 H   0  0  0  0  0  0  0  0  0  0  0  0
  -13.1478   -0.7152  -22.7270 H   0  0  0  0  0  0  0  0  0  0  0  0
  -13.3995    2.8932  -20.0431 H   0  0  0  0  0  0  0  0  0  0  0  0
  -12.6349    3.8149  -21.3727 H   0  0  0  0  0  0  0  0  0  0  0  0
  -11.6471    2.9861  -20.1605 H   0  0  0  0  0  0  0  0  0  0  0  0
  -11.2369    0.5849  -22.8441 H   0  0  0  0  0  0  0  0  0  0  0  0
  -10.4611    1.8730  -21.9348 H   0  0  0  0  0  0  0  0  0  0  0  0
  -11.4895    2.2840  -23.3190 H   0  0  0  0  0  0  0  0  0  0  0  0
  -14.6741    3.2187  -21.8610 H   0  0  0  0  0  0  0  0  0  0  0  0
  -16.8115    2.6153  -22.9027 H   0  0  0  0  0  0  0  0  0  0  0  0
  -20.3749    2.5679  -23.0546 H   0  0  0  0  0  0  0  0  0  0  0  0
  -21.3641    1.2669  -22.3864 H   0  0  0  0  0  0  0  0  0  0  0  0
  -21.9901    3.8426  -23.3309 H   0  0  0  0  0  0  0  0  0  0  0  0
  -26.9215    2.1315  -22.8638 H   0  0  0  0  0  0  0  0  0  0  0  0
  -26.0233    3.2330  -20.4956 H   0  0  0  0  0  0  0  0  0  0  0  0
  -23.4607    4.0095  -21.0402 H   0  0  0  0  0  0  0  0  0  0  0  0
  -21.6694    6.4290  -26.7846 H   0  0  0  0  0  0  0  0  0  0  0  0
  -22.7761    7.5015  -25.9000 H   0  0  0  0  0  0  0  0  0  0  0  0
  -23.8208    6.7073  -28.0181 H   0  0  0  0  0  0  0  0  0  0  0  0
  -24.7254    6.1982  -26.5911 H   0  0  0  0  0  0  0  0  0  0  0  0
  -22.7834    4.5044  -28.2401 H   0  0  0  0  0  0  0  0  0  0  0  0
  -24.5312    4.3277  -28.0904 H   0  0  0  0  0  0  0  0  0  0  0  0
  -24.2054    2.2360  -27.5595 H   0  0  0  0  0  0  0  0  0  0  0  0
  -22.3170   -0.5019  -23.2635 H   0  0  0  0  0  0  0  0  0  0  0  0
  -23.7194   -2.2819  -24.0997 H   0  0  0  0  0  0  0  0  0  0  0  0
  -25.1846   -1.9165  -26.0686 H   0  0  0  0  0  0  0  0  0  0  0  0
  -25.1960    0.2639  -27.1881 H   0  0  0  0  0  0  0  0  0  0  0  0
  -12.3480    0.9196  -20.8420 H   0  0  0  0  0  0  0  0  0  0  0  0
  -21.4613    2.2799  -25.1760 H   0  0  0  0  0  0  0  0  0  0  0  0
  1  2  2  0  0  0  0
  2 14  1  0  0  0  0
  2  3  1  0  0  0  0
  3  4  1  0  0  0  0
  3 36  1  0  0  0  0
  4  5  1  0  0  0  0
  4 37  1  0  0  0  0
  4 38  1  0  0  0  0
  5 13  2  0  0  0  0
  5  6  1  0  0  0  0
  6  7  2  0  0  0  0
  6 39  1  0  0  0  0
  7  8  1  0  0  0  0
  7 40  1  0  0  0  0
  8 12  2  0  0  0  0
  8  9  1  0  0  0  0
  9 10  1  0  0  0  0
  9 11  1  0  0  0  0
  9 66  1  0  0  0  0
 10 41  1  0  0  0  0
 10 42  1  0  0  0  0
 10 43  1  0  0  0  0
 11 44  1  0  0  0  0
 11 45  1  0  0  0  0
 11 46  1  0  0  0  0
 12 13  1  0  0  0  0
 12 47  1  0  0  0  0
 13 48  1  0  0  0  0
 14 49  1  0  0  0  0
 14 50  1  0  0  0  0
 14 15  1  0  0  0  0
 15 31  1  0  0  0  0
 15 16  1  0  0  0  0
 15 67  1  0  0  0  0
 16 22  1  0  0  0  0
 16 17  1  0  0  0  0
 16 51  1  1  0  0  0
 17 21  2  0  0  0  0
 17 18  1  0  0  0  0
 18 19  1  0  0  0  0
 19 20  2  0  0  0  0
 19 52  1  0  0  0  0
 20 21  1  0  0  0  0
 20 53  1  0  0  0  0
 21 54  1  0  0  0  0
 22 28  2  0  0  0  0
 22 23  1  0  0  0  0
 23 25  1  0  0  0  0
 23 24  2  0  0  0  0
 25 26  1  0  0  0  0
 25 55  1  0  0  0  0
 25 56  1  0  0  0  0
 26 27  1  0  0  0  0
 26 57  1  0  0  0  0
 26 58  1  0  0  0  0
 27 28  1  0  0  0  0
 27 59  1  0  0  0  0
 27 60  1  0  0  0  0
 28 29  1  0  0  0  0
 29 30  1  0  0  0  0
 29 61  1  0  0  0  0
 30 31  2  0  0  0  0
 30 35  1  0  0  0  0
 31 32  1  0  0  0  0
 32 33  2  0  0  0  0
 32 62  1  0  0  0  0
 33 34  1  0  0  0  0
 33 63  1  0  0  0  0
 34 35  2  0  0  0  0
 34 64  1  0  0  0  0
 35 65  1  0  0  0  0
M  CHG  2   9   1  15   1
M  END
$$$$
