*****_entry_00001_conf_01
 OpenBabel06232217283D

 58 61  0  0  1  0  0  0  0  0999 V2000
  -16.4244    5.1562  -20.7789 S   0  0  0  0  0  0  0  0  0  0  0  0
  -14.9380    4.8549  -21.7825 C   0  0  0  0  0  0  0  0  0  0  0  0
  -14.2932    3.4791  -21.6447 C   0  0  0  0  0  0  0  0  0  0  0  0
  -13.5368    3.2716  -20.6949 O   0  0  0  0  0  0  0  0  0  0  0  0
  -14.5819    2.5771  -22.6498 N   0  0  0  0  0  0  0  0  0  0  0  0
  -14.0562    1.2762  -22.8086 C   0  0  0  0  0  0  0  0  0  0  0  0
  -12.6633    1.0805  -22.7106 C   0  0  0  0  0  0  0  0  0  0  0  0
  -11.7015    2.2126  -22.4693 C   0  0  0  0  0  0  0  0  0  0  0  0
  -12.1438   -0.2185  -22.8432 C   0  0  0  0  0  0  0  0  0  0  0  0
  -12.9846   -1.3082  -23.0692 C   0  0  0  0  0  0  0  0  0  0  0  0
  -14.3635   -1.1222  -23.1670 C   0  0  0  0  0  0  0  0  0  0  0  0
  -15.2765   -2.2976  -23.3534 C   0  0  0  0  0  0  0  0  0  0  0  0
  -14.8882    0.1699  -23.0268 C   0  0  0  0  0  0  0  0  0  0  0  0
  -17.5120    4.0181  -21.5042 C   0  0  0  0  0  0  0  0  0  0  0  0
  -17.1117    3.1574  -22.3721 N   0  0  0  0  0  0  0  0  0  0  0  0
  -18.0657    2.3150  -22.8885 C   0  0  0  0  0  0  0  0  0  0  0  0
  -19.3677    2.3566  -22.5643 C   0  0  0  0  0  0  0  0  0  0  0  0
  -19.7906    3.3614  -21.5685 C   0  0  0  0  0  0  0  0  0  0  0  0
  -20.9510    3.4566  -21.1841 O   0  0  0  0  0  0  0  0  0  0  0  0
  -18.7949    4.1579  -21.0889 N   0  0  0  0  0  0  0  0  0  0  0  0
  -20.3989    1.4115  -23.1016 C   0  0  0  0  0  0  0  0  0  0  0  0
  -19.9138    0.5183  -24.1852 N   0  3  2  0  0  0  0  0  0  0  0  0
  -20.8706   -0.5964  -24.3407 C   0  0  0  0  0  0  0  0  0  0  0  0
  -22.3004   -0.2101  -24.6706 C   0  0  0  0  0  0  0  0  0  0  0  0
  -22.5634    1.0850  -25.1532 C   0  0  0  0  0  0  0  0  0  0  0  0
  -23.8631    1.4726  -25.4812 C   0  0  0  0  0  0  0  0  0  0  0  0
  -24.9039    0.5654  -25.3344 C   0  0  0  0  0  0  0  0  0  0  0  0
  -26.1530    0.9419  -25.6379 F   0  0  0  0  0  0  0  0  0  0  0  0
  -24.6670   -0.7271  -24.8827 C   0  0  0  0  0  0  0  0  0  0  0  0
  -23.3645   -1.1205  -24.5666 C   0  0  0  0  0  0  0  0  0  0  0  0
  -18.5463    0.0538  -23.8893 C   0  0  0  0  0  0  0  0  0  0  0  0
  -17.5764    1.2461  -23.8298 C   0  0  0  0  0  0  0  0  0  0  0  0
  -14.1873    5.6183  -21.5519 H   0  0  0  0  0  0  0  0  0  0  0  0
  -15.2220    4.9671  -22.8341 H   0  0  0  0  0  0  0  0  0  0  0  0
  -15.3905    2.8138  -23.2096 H   0  0  0  0  0  0  0  0  0  0  0  0
  -11.8874    3.0361  -23.1660 H   0  0  0  0  0  0  0  0  0  0  0  0
  -10.6638    1.8979  -22.6245 H   0  0  0  0  0  0  0  0  0  0  0  0
  -11.7952    2.5733  -21.4403 H   0  0  0  0  0  0  0  0  0  0  0  0
  -11.0719   -0.3917  -22.7742 H   0  0  0  0  0  0  0  0  0  0  0  0
  -12.5562   -2.3032  -23.1651 H   0  0  0  0  0  0  0  0  0  0  0  0
  -14.8525   -3.0050  -24.0733 H   0  0  0  0  0  0  0  0  0  0  0  0
  -16.2527   -1.9853  -23.7391 H   0  0  0  0  0  0  0  0  0  0  0  0
  -15.4278   -2.8075  -22.3967 H   0  0  0  0  0  0  0  0  0  0  0  0
  -15.9673    0.2912  -23.0662 H   0  0  0  0  0  0  0  0  0  0  0  0
  -19.0323    4.8544  -20.4002 H   0  0  0  0  0  0  0  0  0  0  0  0
  -21.2449    1.9881  -23.4953 H   0  0  0  0  0  0  0  0  0  0  0  0
  -20.7682    0.8165  -22.2550 H   0  0  0  0  0  0  0  0  0  0  0  0
  -20.9129   -1.1646  -23.4019 H   0  0  0  0  0  0  0  0  0  0  0  0
  -20.5051   -1.2819  -25.1174 H   0  0  0  0  0  0  0  0  0  0  0  0
  -21.7539    1.8019  -25.2755 H   0  0  0  0  0  0  0  0  0  0  0  0
  -24.0682    2.4728  -25.8484 H   0  0  0  0  0  0  0  0  0  0  0  0
  -25.4958   -1.4196  -24.7787 H   0  0  0  0  0  0  0  0  0  0  0  0
  -23.1833   -2.1353  -24.2174 H   0  0  0  0  0  0  0  0  0  0  0  0
  -18.1765   -0.6209  -24.6685 H   0  0  0  0  0  0  0  0  0  0  0  0
  -18.5199   -0.5024  -22.9427 H   0  0  0  0  0  0  0  0  0  0  0  0
  -17.4522    1.6838  -24.8289 H   0  0  0  0  0  0  0  0  0  0  0  0
  -16.5930    0.8825  -23.5088 H   0  0  0  0  0  0  0  0  0  0  0  0
  -19.8925    1.0818  -25.1063 H   0  0  0  0  0  0  0  0  0  0  0  0
  1 14  1  0  0  0  0
  1  2  1  0  0  0  0
  2  3  1  0  0  0  0
  2 34  1  0  0  0  0
  2 33  1  0  0  0  0
  3  4  2  0  0  0  0
  3  5  1  0  0  0  0
  5  6  1  0  0  0  0
  5 35  1  0  0  0  0
  6 13  2  0  0  0  0
  6  7  1  0  0  0  0
  7  8  1  0  0  0  0
  7  9  2  0  0  0  0
  8 36  1  0  0  0  0
  8 37  1  0  0  0  0
  8 38  1  0  0  0  0
  9 39  1  0  0  0  0
  9 10  1  0  0  0  0
 10 40  1  0  0  0  0
 10 11  2  0  0  0  0
 11 13  1  0  0  0  0
 11 12  1  0  0  0  0
 12 41  1  0  0  0  0
 12 42  1  0  0  0  0
 12 43  1  0  0  0  0
 13 44  1  0  0  0  0
 14 20  1  0  0  0  0
 14 15  2  0  0  0  0
 15 16  1  0  0  0  0
 16 17  2  0  0  0  0
 16 32  1  0  0  0  0
 17 18  1  0  0  0  0
 17 21  1  0  0  0  0
 18 19  2  0  0  0  0
 18 20  1  0  0  0  0
 20 45  1  0  0  0  0
 21 46  1  0  0  0  0
 21 47  1  0  0  0  0
 21 22  1  0  0  0  0
 22 23  1  0  0  0  0
 22 31  1  0  0  0  0
 22 58  1  6  0  0  0
 23 24  1  0  0  0  0
 23 48  1  0  0  0  0
 23 49  1  0  0  0  0
 24 25  2  0  0  0  0
 24 30  1  0  0  0  0
 25 50  1  0  0  0  0
 25 26  1  0  0  0  0
 26 51  1  0  0  0  0
 26 27  2  0  0  0  0
 27 29  1  0  0  0  0
 27 28  1  0  0  0  0
 29 30  2  0  0  0  0
 29 52  1  0  0  0  0
 30 53  1  0  0  0  0
 31 32  1  0  0  0  0
 31 54  1  0  0  0  0
 31 55  1  0  0  0  0
 32 56  1  0  0  0  0
 32 57  1  0  0  0  0
M  CHG  1  22   1
M  END
$$$$
