*****_entry_00001_conf_01
 OpenBabel06232217283D

 41 44  0  0  0  0  0  0  0  0999 V2000
  -25.5749    3.0657  -23.4536 Br  0  0  0  0  0  0  0  0  0  0  0  0
  -24.7782    1.4534  -24.0470 C   0  0  0  0  0  0  0  0  0  0  0  0
  -23.4004    1.2414  -23.9555 C   0  0  0  0  0  0  0  0  0  0  0  0
  -22.5830    2.2507  -23.4090 O   0  0  0  0  0  0  0  0  0  0  0  0
  -21.2054    2.1119  -23.2964 C   0  0  0  0  0  0  0  0  0  0  0  0
  -20.5143    3.0127  -22.8257 O   0  0  0  0  0  0  0  0  0  0  0  0
  -20.6090    0.8448  -23.7679 C   0  0  0  0  0  0  0  0  0  0  0  0
  -19.1372    0.5720  -23.7070 C   0  0  0  0  0  0  0  0  0  0  0  0
  -18.6904   -0.5480  -23.9523 O   0  0  0  0  0  0  0  0  0  0  0  0
  -18.3529    1.6594  -23.3706 N   0  0  0  0  0  0  0  0  0  0  0  0
  -17.0012    1.5230  -23.2895 N   0  0  0  0  0  0  0  0  0  0  0  0
  -16.3650    2.5481  -22.8102 C   0  0  0  0  0  0  0  0  0  0  0  0
  -14.8886    2.5342  -22.6544 C   0  0  0  0  0  0  0  0  0  0  0  0
  -14.2189    3.7357  -22.3586 C   0  0  0  0  0  0  0  0  0  0  0  0
  -14.8438    4.9461  -22.2098 O   0  0  0  0  0  0  0  0  0  0  0  0
  -12.8416    3.7569  -22.1917 C   0  0  0  0  0  0  0  0  0  0  0  0
  -12.1114    2.5805  -22.3244 C   0  0  0  0  0  0  0  0  0  0  0  0
  -12.7453    1.3667  -22.6266 C   0  0  0  0  0  0  0  0  0  0  0  0
  -14.1550    1.3164  -22.7989 C   0  0  0  0  0  0  0  0  0  0  0  0
  -14.7150    0.0489  -23.1135 C   0  0  0  0  0  0  0  0  0  0  0  0
  -13.9287   -1.0995  -23.2438 C   0  0  0  0  0  0  0  0  0  0  0  0
  -12.5562   -1.0221  -23.0669 C   0  0  0  0  0  0  0  0  0  0  0  0
  -11.9701    0.2032  -22.7610 C   0  0  0  0  0  0  0  0  0  0  0  0
  -21.3858   -0.1222  -24.2845 C   0  0  0  0  0  0  0  0  0  0  0  0
  -22.8251    0.0520  -24.3966 C   0  0  0  0  0  0  0  0  0  0  0  0
  -23.6430   -0.9425  -24.9388 C   0  0  0  0  0  0  0  0  0  0  0  0
  -25.0210   -0.7319  -25.0305 C   0  0  0  0  0  0  0  0  0  0  0  0
  -26.1233   -2.0814  -25.7649 Br  0  0  0  0  0  0  0  0  0  0  0  0
  -25.5944    0.4606  -24.5881 C   0  0  0  0  0  0  0  0  0  0  0  0
  -18.7833    2.5646  -23.1649 H   0  0  0  0  0  0  0  0  0  0  0  0
  -16.9183    3.4522  -22.5149 H   0  0  0  0  0  0  0  0  0  0  0  0
  -14.1798    5.6612  -22.3426 H   0  0  0  0  0  0  0  0  0  0  0  0
  -12.3376    4.6918  -21.9606 H   0  0  0  0  0  0  0  0  0  0  0  0
  -11.0318    2.6238  -22.1922 H   0  0  0  0  0  0  0  0  0  0  0  0
  -15.7815   -0.0779  -23.2734 H   0  0  0  0  0  0  0  0  0  0  0  0
  -14.3935   -2.0519  -23.4867 H   0  0  0  0  0  0  0  0  0  0  0  0
  -11.9397   -1.9113  -23.1694 H   0  0  0  0  0  0  0  0  0  0  0  0
  -10.8901    0.2432  -22.6299 H   0  0  0  0  0  0  0  0  0  0  0  0
  -20.9615   -1.0597  -24.6379 H   0  0  0  0  0  0  0  0  0  0  0  0
  -23.2127   -1.8782  -25.2898 H   0  0  0  0  0  0  0  0  0  0  0  0
  -26.6681    0.6131  -24.6653 H   0  0  0  0  0  0  0  0  0  0  0  0
  1  2  1  0  0  0  0
  2  3  2  0  0  0  0
  2 29  1  0  0  0  0
  3 25  1  0  0  0  0
  3  4  1  0  0  0  0
  4  5  1  0  0  0  0
  5  7  1  0  0  0  0
  5  6  2  0  0  0  0
  7  8  1  0  0  0  0
  7 24  2  0  0  0  0
  8  9  2  0  0  0  0
  8 10  1  0  0  0  0
 10 30  1  0  0  0  0
 10 11  1  0  0  0  0
 11 12  2  0  0  0  0
 12 13  1  0  0  0  0
 12 31  1  0  0  0  0
 13 14  2  0  0  0  0
 13 19  1  0  0  0  0
 14 15  1  0  0  0  0
 14 16  1  0  0  0  0
 15 32  1  0  0  0  0
 16 17  2  0  0  0  0
 16 33  1  0  0  0  0
 17 18  1  0  0  0  0
 17 34  1  0  0  0  0
 18 19  2  0  0  0  0
 18 23  1  0  0  0  0
 19 20  1  0  0  0  0
 20 21  2  0  0  0  0
 20 35  1  0  0  0  0
 21 22  1  0  0  0  0
 21 36  1  0  0  0  0
 22 37  1  0  0  0  0
 22 23  2  0  0  0  0
 23 38  1  0  0  0  0
 24 25  1  0  0  0  0
 24 39  1  0  0  0  0
 25 26  2  0  0  0  0
 26 27  1  0  0  0  0
 26 40  1  0  0  0  0
 27 28  1  0  0  0  0
 27 29  2  0  0  0  0
 29 41  1  0  0  0  0
M  END
$$$$
