*****_entry_00001_conf_01
 OpenBabel06232217283D

 58 62  0  0  1  0  0  0  0  0999 V2000
  -13.5250   -2.5441  -23.0661 Cl  0  0  0  0  0  0  0  0  0  0  0  0
  -14.9463   -1.5967  -23.2704 C   0  0  0  0  0  0  0  0  0  0  0  0
  -14.8499   -0.2096  -23.3362 C   0  0  0  0  0  0  0  0  0  0  0  0
  -16.0041    0.5602  -23.5010 C   0  0  0  0  0  0  0  0  0  0  0  0
  -17.2657   -0.0500  -23.5959 C   0  0  0  0  0  0  0  0  0  0  0  0
  -18.5359    0.7652  -23.7720 C   0  0  2  0  0  0  0  0  0  0  0  0
  -18.8046    1.6641  -22.5786 C   0  0  0  0  0  0  0  0  0  0  0  0
  -20.0089    2.5169  -22.8800 C   0  0  0  0  0  0  0  0  0  0  0  0
  -20.0088    3.7052  -22.5658 O   0  0  0  0  0  0  0  0  0  0  0  0
  -21.2121    1.8647  -23.5068 C   0  0  0  0  0  0  0  0  0  0  0  0
  -22.4483    2.7209  -23.4619 C   0  0  1  0  0  0  0  0  0  0  0  0
  -22.6809    3.6284  -24.6739 C   0  0  0  0  0  0  0  0  0  0  0  0
  -22.7298    5.0330  -24.5272 C   0  0  0  0  0  0  0  0  0  0  0  0
  -22.6097    5.5124  -23.2491 O   0  0  0  0  0  0  0  0  0  0  0  0
  -22.6412    6.9238  -23.0546 C   0  0  0  0  0  0  0  0  0  0  0  0
  -22.5028    7.1851  -21.5656 C   0  0  0  0  0  0  0  0  0  0  0  0
  -22.8942    5.8512  -25.6528 C   0  0  0  0  0  0  0  0  0  0  0  0
  -23.0627    5.2914  -26.9192 C   0  0  0  0  0  0  0  0  0  0  0  0
  -23.0646    3.9112  -27.0717 C   0  0  0  0  0  0  0  0  0  0  0  0
  -22.8696    3.0893  -25.9615 C   0  0  0  0  0  0  0  0  0  0  0  0
  -23.6635    1.9989  -23.0674 N   0  3  0  0  0  0  0  0  0  0  0  0
  -24.2252    0.9636  -23.8145 C   0  0  0  0  0  0  0  0  0  0  0  0
  -23.5095   -0.0358  -24.4971 C   0  0  0  0  0  0  0  0  0  0  0  0
  -22.1040   -0.1281  -24.5965 N   0  0  0  0  0  0  0  0  0  0  0  0
  -21.0996    0.6159  -24.0075 C   0  0  0  0  0  0  0  0  0  0  0  0
  -19.7602   -0.1201  -24.0260 C   0  0  0  0  0  0  0  0  0  0  0  0
  -24.2370   -1.0315  -25.1945 C   0  0  0  0  0  0  0  0  0  0  0  0
  -25.6282   -1.1014  -25.1532 C   0  0  0  0  0  0  0  0  0  0  0  0
  -26.3292   -0.1683  -24.4117 C   0  0  0  0  0  0  0  0  0  0  0  0
  -25.6327    0.8415  -23.7480 C   0  0  0  0  0  0  0  0  0  0  0  0
  -17.3415   -1.4503  -23.5316 C   0  0  0  0  0  0  0  0  0  0  0  0
  -16.1868   -2.2204  -23.3697 C   0  0  0  0  0  0  0  0  0  0  0  0
  -13.8820    0.2790  -23.2619 H   0  0  0  0  0  0  0  0  0  0  0  0
  -15.9031    1.6423  -23.5551 H   0  0  0  0  0  0  0  0  0  0  0  0
  -18.4117    1.4089  -24.6559 H   0  0  0  0  0  0  0  0  0  0  0  0
  -17.9460    2.3222  -22.3981 H   0  0  0  0  0  0  0  0  0  0  0  0
  -18.9980    1.1056  -21.6556 H   0  0  0  0  0  0  0  0  0  0  0  0
  -22.3052    3.3752  -22.5946 H   0  0  0  0  0  0  0  0  0  0  0  0
  -23.5953    7.3399  -23.3979 H   0  0  0  0  0  0  0  0  0  0  0  0
  -21.8084    7.3970  -23.5868 H   0  0  0  0  0  0  0  0  0  0  0  0
  -23.2988    6.6763  -21.0112 H   0  0  0  0  0  0  0  0  0  0  0  0
  -22.5511    8.2561  -21.3506 H   0  0  0  0  0  0  0  0  0  0  0  0
  -21.5526    6.7905  -21.1910 H   0  0  0  0  0  0  0  0  0  0  0  0
  -22.8934    6.9333  -25.5763 H   0  0  0  0  0  0  0  0  0  0  0  0
  -23.1986    5.9349  -27.7844 H   0  0  0  0  0  0  0  0  0  0  0  0
  -23.2142    3.4697  -28.0535 H   0  0  0  0  0  0  0  0  0  0  0  0
  -22.8744    2.0139  -26.1139 H   0  0  0  0  0  0  0  0  0  0  0  0
  -24.3657    2.6929  -22.8248 H   0  0  0  0  0  0  0  0  0  0  0  0
  -21.8093   -1.0505  -24.9047 H   0  0  0  0  0  0  0  0  0  0  0  0
  -19.6249   -0.6078  -25.0020 H   0  0  0  0  0  0  0  0  0  0  0  0
  -19.8231   -0.9279  -23.2849 H   0  0  0  0  0  0  0  0  0  0  0  0
  -23.7080   -1.7874  -25.7709 H   0  0  0  0  0  0  0  0  0  0  0  0
  -26.1535   -1.8899  -25.6842 H   0  0  0  0  0  0  0  0  0  0  0  0
  -27.4123   -0.2178  -24.3452 H   0  0  0  0  0  0  0  0  0  0  0  0
  -26.2094    1.5599  -23.1687 H   0  0  0  0  0  0  0  0  0  0  0  0
  -18.3017   -1.9570  -23.6106 H   0  0  0  0  0  0  0  0  0  0  0  0
  -16.2634   -3.3034  -23.3235 H   0  0  0  0  0  0  0  0  0  0  0  0
  -23.3543    1.5039  -22.1586 H   0  0  0  0  0  0  0  0  0  0  0  0
  1  2  1  0  0  0  0
  2 32  2  0  0  0  0
  2  3  1  0  0  0  0
  3 33  1  0  0  0  0
  3  4  2  0  0  0  0
  4 34  1  0  0  0  0
  4  5  1  0  0  0  0
  5  6  1  0  0  0  0
  5 31  2  0  0  0  0
  6  7  1  0  0  0  0
  6 26  1  0  0  0  0
  6 35  1  6  0  0  0
  7 36  1  0  0  0  0
  7 37  1  0  0  0  0
  7  8  1  0  0  0  0
  8  9  2  0  0  0  0
  8 10  1  0  0  0  0
 10 11  1  0  0  0  0
 10 25  2  0  0  0  0
 11 12  1  0  0  0  0
 11 21  1  0  0  0  0
 11 38  1  1  0  0  0
 12 13  2  0  0  0  0
 12 20  1  0  0  0  0
 13 14  1  0  0  0  0
 13 17  1  0  0  0  0
 14 15  1  0  0  0  0
 15 16  1  0  0  0  0
 15 39  1  0  0  0  0
 15 40  1  0  0  0  0
 16 42  1  0  0  0  0
 16 43  1  0  0  0  0
 16 41  1  0  0  0  0
 17 18  2  0  0  0  0
 17 44  1  0  0  0  0
 18 45  1  0  0  0  0
 18 19  1  0  0  0  0
 19 20  2  0  0  0  0
 19 46  1  0  0  0  0
 20 47  1  0  0  0  0
 21 22  1  0  0  0  0
 21 48  1  0  0  0  0
 21 58  1  0  0  0  0
 22 23  2  0  0  0  0
 22 30  1  0  0  0  0
 23 24  1  0  0  0  0
 23 27  1  0  0  0  0
 24 25  1  0  0  0  0
 24 49  1  0  0  0  0
 25 26  1  0  0  0  0
 26 50  1  0  0  0  0
 26 51  1  0  0  0  0
 27 28  2  0  0  0  0
 27 52  1  0  0  0  0
 28 29  1  0  0  0  0
 28 53  1  0  0  0  0
 29 54  1  0  0  0  0
 29 30  2  0  0  0  0
 30 55  1  0  0  0  0
 31 32  1  0  0  0  0
 31 56  1  0  0  0  0
 32 57  1  0  0  0  0
M  CHG  1  21   1
M  END
$$$$
