*****_entry_00001_conf_01
 OpenBabel06232217283D

 54 57  0  0  1  0  0  0  0  0999 V2000
  -16.8194    6.5892  -20.0668 O   0  0  0  0  0  0  0  0  0  0  0  0
  -15.6505    6.7870  -20.3701 C   0  0  0  0  0  0  0  0  0  0  0  0
  -14.9749    6.0505  -21.3187 N   0  0  0  0  0  0  0  0  0  0  0  0
  -15.6569    4.9961  -22.0695 C   0  0  2  0  0  0  0  0  0  0  0  0
  -16.3915    5.4842  -22.7230 H   0  0  0  0  0  0  0  0  0  0  0  0
  -16.3254    3.9637  -21.1417 C   0  0  1  0  0  0  0  0  0  0  0  0
  -16.3879    4.3268  -20.1085 H   0  0  0  0  0  0  0  0  0  0  0  0
  -17.7097    3.6174  -21.5933 C   0  0  0  0  0  0  0  0  0  0  0  0
  -18.8099    4.3722  -21.2983 N   0  0  0  0  0  0  0  0  0  0  0  0
  -18.8541    5.2374  -20.7673 H   0  0  0  0  0  0  0  0  0  0  0  0
  -19.9221    3.8477  -21.8294 N   0  0  0  0  0  0  0  0  0  0  0  0
  -19.4518    2.7517  -22.4486 C   0  0  0  0  0  0  0  0  0  0  0  0
  -20.2824    1.8100  -23.1945 C   0  0  0  0  0  0  0  0  0  0  0  0
  -21.6462    2.0604  -23.4073 C   0  0  0  0  0  0  0  0  0  0  0  0
  -22.4340    1.1545  -24.1231 C   0  0  0  0  0  0  0  0  0  0  0  0
  -21.8665   -0.0110  -24.6346 C   0  0  0  0  0  0  0  0  0  0  0  0
  -20.5132   -0.2734  -24.4305 C   0  0  0  0  0  0  0  0  0  0  0  0
  -19.7259    0.6318  -23.7137 C   0  0  0  0  0  0  0  0  0  0  0  0
  -18.0850    2.5922  -22.3258 N   0  0  0  0  0  0  0  0  0  0  0  0
  -15.3879    2.7576  -21.2166 C   0  0  0  0  0  0  0  0  0  0  0  0
  -14.9681    2.7555  -22.6259 N   0  3  2  0  0  0  0  0  0  0  0  0
  -13.7982    1.8810  -22.8381 C   0  0  0  0  0  0  0  0  0  0  0  0
  -14.1636    0.4163  -22.9892 C   0  0  0  0  0  0  0  0  0  0  0  0
  -15.4852    0.1052  -22.9941 N   0  0  0  0  0  0  0  0  0  0  0  0
  -15.8108   -1.2028  -23.0762 C   0  0  0  0  0  0  0  0  0  0  0  0
  -17.1371   -1.5866  -23.0681 O   0  0  0  0  0  0  0  0  0  0  0  0
  -17.6278   -1.9209  -24.3616 C   0  0  0  0  0  0  0  0  0  0  0  0
  -14.8798   -2.2249  -23.1574 C   0  0  0  0  0  0  0  0  0  0  0  0
  -13.5310   -1.8904  -23.1602 C   0  0  0  0  0  0  0  0  0  0  0  0
  -13.1633   -0.5519  -23.0687 C   0  0  0  0  0  0  0  0  0  0  0  0
  -14.6637    4.1720  -22.9242 C   0  0  0  0  0  0  0  0  0  0  0  0
  -14.8329    7.8962  -19.7655 C   0  0  0  0  0  0  0  0  0  0  0  0
  -14.0899    6.4053  -21.6580 H   0  0  0  0  0  0  0  0  0  0  0  0
  -22.1035    2.9656  -23.0127 H   0  0  0  0  0  0  0  0  0  0  0  0
  -23.4895    1.3610  -24.2789 H   0  0  0  0  0  0  0  0  0  0  0  0
  -22.4793   -0.7153  -25.1912 H   0  0  0  0  0  0  0  0  0  0  0  0
  -20.0683   -1.1822  -24.8273 H   0  0  0  0  0  0  0  0  0  0  0  0
  -18.6708    0.4134  -23.5607 H   0  0  0  0  0  0  0  0  0  0  0  0
  -15.8787    1.8179  -20.9402 H   0  0  0  0  0  0  0  0  0  0  0  0
  -14.5307    2.9137  -20.5481 H   0  0  0  0  0  0  0  0  0  0  0  0
  -13.1183    1.9692  -21.9805 H   0  0  0  0  0  0  0  0  0  0  0  0
  -13.2226    2.1980  -23.7182 H   0  0  0  0  0  0  0  0  0  0  0  0
  -18.6806   -2.2005  -24.2563 H   0  0  0  0  0  0  0  0  0  0  0  0
  -17.0931   -2.7850  -24.7713 H   0  0  0  0  0  0  0  0  0  0  0  0
  -17.5789   -1.0668  -25.0459 H   0  0  0  0  0  0  0  0  0  0  0  0
  -15.2016   -3.2582  -23.2167 H   0  0  0  0  0  0  0  0  0  0  0  0
  -12.7741   -2.6665  -23.2248 H   0  0  0  0  0  0  0  0  0  0  0  0
  -12.1152   -0.2705  -23.0530 H   0  0  0  0  0  0  0  0  0  0  0  0
  -14.8106    4.3782  -23.9901 H   0  0  0  0  0  0  0  0  0  0  0  0
  -13.6288    4.4293  -22.6634 H   0  0  0  0  0  0  0  0  0  0  0  0
  -15.1448    8.0516  -18.7291 H   0  0  0  0  0  0  0  0  0  0  0  0
  -14.9923    8.8130  -20.3390 H   0  0  0  0  0  0  0  0  0  0  0  0
  -13.7680    7.6467  -19.7675 H   0  0  0  0  0  0  0  0  0  0  0  0
  -15.7860    2.4232  -23.2480 H   0  0  0  0  0  0  0  0  0  0  0  0
  1  2  2  0  0  0  0
  2  3  1  0  0  0  0
  2 32  1  0  0  0  0
  3 33  1  0  0  0  0
  3  4  1  0  0  0  0
  4  5  1  0  0  0  0
  4  6  1  1  0  0  0
  4 31  1  0  0  0  0
  6  7  1  1  0  0  0
  6  8  1  0  0  0  0
  6 20  1  0  0  0  0
  8  9  1  0  0  0  0
  8 19  2  0  0  0  0
  9 10  1  0  0  0  0
  9 11  1  0  0  0  0
 11 12  2  0  0  0  0
 12 19  1  0  0  0  0
 12 13  1  0  0  0  0
 13 14  2  0  0  0  0
 13 18  1  0  0  0  0
 14 34  1  0  0  0  0
 14 15  1  0  0  0  0
 15 16  2  0  0  0  0
 15 35  1  0  0  0  0
 16 17  1  0  0  0  0
 16 36  1  0  0  0  0
 17 18  2  0  0  0  0
 17 37  1  0  0  0  0
 18 38  1  0  0  0  0
 20 21  1  0  0  0  0
 20 39  1  0  0  0  0
 20 40  1  0  0  0  0
 21 22  1  0  0  0  0
 21 31  1  0  0  0  0
 21 54  1  6  0  0  0
 22 23  1  0  0  0  0
 22 41  1  0  0  0  0
 22 42  1  0  0  0  0
 23 30  2  0  0  0  0
 23 24  1  0  0  0  0
 24 25  2  0  0  0  0
 25 28  1  0  0  0  0
 25 26  1  0  0  0  0
 26 27  1  0  0  0  0
 27 43  1  0  0  0  0
 27 44  1  0  0  0  0
 27 45  1  0  0  0  0
 28 29  2  0  0  0  0
 28 46  1  0  0  0  0
 29 30  1  0  0  0  0
 29 47  1  0  0  0  0
 30 48  1  0  0  0  0
 31 49  1  0  0  0  0
 31 50  1  0  0  0  0
 32 51  1  0  0  0  0
 32 52  1  0  0  0  0
 32 53  1  0  0  0  0
M  CHG  1  21   1
M  END
$$$$
