*****_entry_00001_conf_01
 OpenBabel06232217283D

 48 50  0  0  0  0  0  0  0  0999 V2000
  -19.4016   -1.1621  -24.2659 O   0  0  0  0  0  0  0  0  0  0  0  0
  -18.5217   -0.3966  -23.8769 C   0  0  0  0  0  0  0  0  0  0  0  0
  -18.7079    0.9257  -23.5488 N   0  0  0  0  0  0  0  0  0  0  0  0
  -19.9460    1.6014  -23.4232 C   0  0  0  0  0  0  0  0  0  0  0  0
  -19.9544    2.8663  -22.8022 C   0  0  0  0  0  0  0  0  0  0  0  0
  -18.7323    3.3523  -22.4023 O   0  0  0  0  0  0  0  0  0  0  0  0
  -18.7245    4.6729  -21.8693 C   0  0  0  0  0  0  0  0  0  0  0  0
  -21.1597    3.5649  -22.6784 C   0  0  0  0  0  0  0  0  0  0  0  0
  -22.3557    2.9820  -23.1047 C   0  0  0  0  0  0  0  0  0  0  0  0
  -22.3603    1.6990  -23.6454 C   0  0  0  0  0  0  0  0  0  0  0  0
  -23.5905    1.1951  -23.9718 O   0  0  0  0  0  0  0  0  0  0  0  0
  -23.5837   -0.1704  -24.3840 C   0  0  0  0  0  0  0  0  0  0  0  0
  -21.1533    1.0277  -23.8390 C   0  0  0  0  0  0  0  0  0  0  0  0
  -17.1186   -0.8950  -23.7765 C   0  0  0  0  0  0  0  0  0  0  0  0
  -15.9232   -0.0327  -23.6003 C   0  0  0  0  0  0  0  0  0  0  0  0
  -16.0531    1.1834  -23.7611 O   0  0  0  0  0  0  0  0  0  0  0  0
  -14.7097   -0.6763  -23.3150 N   0  0  0  0  0  0  0  0  0  0  0  0
  -13.5679    0.1292  -22.9627 C   0  0  0  0  0  0  0  0  0  0  0  0
  -13.7399    1.3315  -22.2494 C   0  0  0  0  0  0  0  0  0  0  0  0
  -12.6407    2.1026  -21.8601 C   0  0  0  0  0  0  0  0  0  0  0  0
  -12.6890    3.2610  -21.1333 O   0  0  0  0  0  0  0  0  0  0  0  0
  -13.9677    3.6737  -20.6660 C   0  0  0  0  0  0  0  0  0  0  0  0
  -11.3567    1.6936  -22.2186 C   0  0  0  0  0  0  0  0  0  0  0  0
  -11.1659    0.5126  -22.9313 C   0  0  0  0  0  0  0  0  0  0  0  0
  -12.2640   -0.2708  -23.2891 C   0  0  0  0  0  0  0  0  0  0  0  0
  -14.5602   -2.0658  -23.3945 C   0  0  0  0  0  0  0  0  0  0  0  0
  -13.5304   -2.7101  -23.2003 O   0  0  0  0  0  0  0  0  0  0  0  0
  -15.7034   -2.7714  -23.6698 N   0  0  0  0  0  0  0  0  0  0  0  0
  -16.9381   -2.2192  -23.8119 C   0  0  0  0  0  0  0  0  0  0  0  0
  -17.8875    1.5157  -23.4002 H   0  0  0  0  0  0  0  0  0  0  0  0
  -17.7217    4.8704  -21.4789 H   0  0  0  0  0  0  0  0  0  0  0  0
  -19.4322    4.7677  -21.0385 H   0  0  0  0  0  0  0  0  0  0  0  0
  -18.9264    5.4169  -22.6467 H   0  0  0  0  0  0  0  0  0  0  0  0
  -21.2048    4.5653  -22.2620 H   0  0  0  0  0  0  0  0  0  0  0  0
  -23.2923    3.5232  -22.9959 H   0  0  0  0  0  0  0  0  0  0  0  0
  -24.6183   -0.5259  -24.3819 H   0  0  0  0  0  0  0  0  0  0  0  0
  -23.0153   -0.7966  -23.6860 H   0  0  0  0  0  0  0  0  0  0  0  0
  -23.1995   -0.2731  -25.4036 H   0  0  0  0  0  0  0  0  0  0  0  0
  -21.1583    0.0440  -24.2907 H   0  0  0  0  0  0  0  0  0  0  0  0
  -14.7418    1.6403  -21.9707 H   0  0  0  0  0  0  0  0  0  0  0  0
  -13.8249    4.5592  -20.0391 H   0  0  0  0  0  0  0  0  0  0  0  0
  -14.4329    2.8999  -20.0456 H   0  0  0  0  0  0  0  0  0  0  0  0
  -14.6180    3.9567  -21.4998 H   0  0  0  0  0  0  0  0  0  0  0  0
  -10.4981    2.2954  -21.9308 H   0  0  0  0  0  0  0  0  0  0  0  0
  -10.1621    0.1985  -23.2052 H   0  0  0  0  0  0  0  0  0  0  0  0
  -12.0791   -1.1821  -23.8532 H   0  0  0  0  0  0  0  0  0  0  0  0
  -15.5899   -3.7805  -23.6800 H   0  0  0  0  0  0  0  0  0  0  0  0
  -17.7592   -2.9207  -23.9427 H   0  0  0  0  0  0  0  0  0  0  0  0
  1  2  2  0  0  0  0
  2  3  1  0  0  0  0
  2 14  1  0  0  0  0
  3  4  1  0  0  0  0
  3 30  1  0  0  0  0
  4 13  2  0  0  0  0
  4  5  1  0  0  0  0
  5  6  1  0  0  0  0
  5  8  2  0  0  0  0
  6  7  1  0  0  0  0
  7 32  1  0  0  0  0
  7 33  1  0  0  0  0
  7 31  1  0  0  0  0
  8  9  1  0  0  0  0
  8 34  1  0  0  0  0
  9 10  2  0  0  0  0
  9 35  1  0  0  0  0
 10 13  1  0  0  0  0
 10 11  1  0  0  0  0
 11 12  1  0  0  0  0
 12 38  1  0  0  0  0
 12 36  1  0  0  0  0
 12 37  1  0  0  0  0
 13 39  1  0  0  0  0
 14 15  1  0  0  0  0
 14 29  2  0  0  0  0
 15 16  2  0  0  0  0
 15 17  1  0  0  0  0
 17 18  1  0  0  0  0
 17 26  1  0  0  0  0
 18 19  2  0  0  0  0
 18 25  1  0  0  0  0
 19 40  1  0  0  0  0
 19 20  1  0  0  0  0
 20 23  2  0  0  0  0
 20 21  1  0  0  0  0
 21 22  1  0  0  0  0
 22 41  1  0  0  0  0
 22 42  1  0  0  0  0
 22 43  1  0  0  0  0
 23 24  1  0  0  0  0
 23 44  1  0  0  0  0
 24 25  2  0  0  0  0
 24 45  1  0  0  0  0
 25 46  1  0  0  0  0
 26 27  2  0  0  0  0
 26 28  1  0  0  0  0
 28 29  1  0  0  0  0
 28 47  1  0  0  0  0
 29 48  1  0  0  0  0
M  END
$$$$
