*****_entry_00001_conf_01
 OpenBabel06232217283D

 37 39  0  0  0  0  0  0  0  0999 V2000
  -15.0917   -1.6228  -22.9145 Br  0  0  0  0  0  0  0  0  0  0  0  0
  -13.7540   -0.2877  -22.8510 C   0  0  0  0  0  0  0  0  0  0  0  0
  -14.1194    1.0439  -22.6477 C   0  0  0  0  0  0  0  0  0  0  0  0
  -13.1268    2.0285  -22.5997 C   0  0  0  0  0  0  0  0  0  0  0  0
  -13.5488    3.4291  -22.4035 C   0  0  0  0  0  0  0  0  0  0  0  0
  -14.8026    3.7607  -22.3537 N   0  0  0  0  0  0  0  0  0  0  0  0
  -15.0251    5.0819  -22.0931 N   0  0  0  0  0  0  0  0  0  0  0  0
  -16.2371    5.5913  -21.6643 C   0  0  0  0  0  0  0  0  0  0  0  0
  -16.2459    6.6887  -21.1010 O   0  0  0  0  0  0  0  0  0  0  0  0
  -17.4511    4.8517  -21.8881 C   0  0  0  0  0  0  0  0  0  0  0  0
  -18.6671    5.3704  -21.5457 N   0  0  0  0  0  0  0  0  0  0  0  0
  -18.8405    6.2668  -21.1010 H   0  0  0  0  0  0  0  0  0  0  0  0
  -19.7120    4.5978  -21.8724 N   0  0  0  0  0  0  0  0  0  0  0  0
  -19.1659    3.5191  -22.4582 C   0  0  0  0  0  0  0  0  0  0  0  0
  -20.0190    2.4703  -23.0279 C   0  0  0  0  0  0  0  0  0  0  0  0
  -19.5347    1.2863  -23.6091 C   0  0  0  0  0  0  0  0  0  0  0  0
  -17.8574    0.8731  -23.6667 Cl  0  0  0  0  0  0  0  0  0  0  0  0
  -20.4212    0.3424  -24.1477 C   0  0  0  0  0  0  0  0  0  0  0  0
  -21.7940    0.5667  -24.1023 C   0  0  0  0  0  0  0  0  0  0  0  0
  -22.8749   -0.5971  -24.7620 Cl  0  0  0  0  0  0  0  0  0  0  0  0
  -22.2971    1.7236  -23.5206 C   0  0  0  0  0  0  0  0  0  0  0  0
  -21.4148    2.6663  -22.9874 C   0  0  0  0  0  0  0  0  0  0  0  0
  -17.7481    3.6433  -22.4880 C   0  0  0  0  0  0  0  0  0  0  0  0
  -11.7837    1.6728  -22.7663 C   0  0  0  0  0  0  0  0  0  0  0  0
  -10.7636    2.5807  -22.7666 O   0  0  0  0  0  0  0  0  0  0  0  0
  -11.4279    0.3416  -22.9696 C   0  0  0  0  0  0  0  0  0  0  0  0
  -12.4150   -0.6442  -23.0108 C   0  0  0  0  0  0  0  0  0  0  0  0
  -15.1670    1.3050  -22.5257 H   0  0  0  0  0  0  0  0  0  0  0  0
  -12.7453    4.1815  -22.3003 H   0  0  0  0  0  0  0  0  0  0  0  0
  -14.2331    5.6888  -21.9061 H   0  0  0  0  0  0  0  0  0  0  0  0
  -20.0381   -0.5724  -24.5932 H   0  0  0  0  0  0  0  0  0  0  0  0
  -23.3684    1.9010  -23.4729 H   0  0  0  0  0  0  0  0  0  0  0  0
  -21.8235    3.5681  -22.5319 H   0  0  0  0  0  0  0  0  0  0  0  0
  -17.0389    2.9620  -22.9367 H   0  0  0  0  0  0  0  0  0  0  0  0
  -10.8210    3.1122  -21.9436 H   0  0  0  0  0  0  0  0  0  0  0  0
  -10.3817    0.0755  -23.0996 H   0  0  0  0  0  0  0  0  0  0  0  0
  -12.1286   -1.6806  -23.1716 H   0  0  0  0  0  0  0  0  0  0  0  0
  1  2  1  0  0  0  0
  2  3  2  0  0  0  0
  2 27  1  0  0  0  0
  3  4  1  0  0  0  0
  3 28  1  0  0  0  0
  4 24  2  0  0  0  0
  4  5  1  0  0  0  0
  5  6  2  0  0  0  0
  5 29  1  0  0  0  0
  6  7  1  0  0  0  0
  7  8  1  0  0  0  0
  7 30  1  0  0  0  0
  8  9  2  0  0  0  0
  8 10  1  0  0  0  0
 10 11  1  0  0  0  0
 10 23  2  0  0  0  0
 11 12  1  0  0  0  0
 11 13  1  0  0  0  0
 13 14  2  0  0  0  0
 14 15  1  0  0  0  0
 14 23  1  0  0  0  0
 15 16  2  0  0  0  0
 15 22  1  0  0  0  0
 16 18  1  0  0  0  0
 16 17  1  0  0  0  0
 18 19  2  0  0  0  0
 18 31  1  0  0  0  0
 19 21  1  0  0  0  0
 19 20  1  0  0  0  0
 21 22  2  0  0  0  0
 21 32  1  0  0  0  0
 22 33  1  0  0  0  0
 23 34  1  0  0  0  0
 24 25  1  0  0  0  0
 24 26  1  0  0  0  0
 25 35  1  0  0  0  0
 26 27  2  0  0  0  0
 26 36  1  0  0  0  0
 27 37  1  0  0  0  0
M  END
$$$$
