*****_entry_00001_conf_01
 OpenBabel06232217283D

 43 45  0  0  0  0  0  0  0  0999 V2000
   -9.8423    6.5209   24.4770 O   0  0  0  0  0  0  0  0  0  0  0  0
   -8.9670    7.3314   24.7595 C   0  0  0  0  0  0  0  0  0  0  0  0
   -7.6273    7.1284   24.5281 N   0  0  0  0  0  0  0  0  0  0  0  0
   -7.1045    5.9498   23.8802 C   0  0  0  0  0  0  0  0  0  0  0  0
   -6.1755    6.3225   22.7520 C   0  0  0  0  0  0  0  0  0  0  0  0
   -6.2883    5.7466   21.4754 C   0  0  0  0  0  0  0  0  0  0  0  0
   -7.2890    4.8227   21.3199 O   0  0  0  0  0  0  0  0  0  0  0  0
   -7.3248    4.0986   20.0960 C   0  0  0  0  0  0  0  0  0  0  0  0
   -5.4066    6.1428   20.4632 C   0  0  0  0  0  0  0  0  0  0  0  0
   -4.4185    7.1058   20.7003 C   0  0  0  0  0  0  0  0  0  0  0  0
   -3.6305    7.3907   19.6177 O   0  0  0  0  0  0  0  0  0  0  0  0
   -2.7005    8.4569   19.7618 C   0  0  0  0  0  0  0  0  0  0  0  0
   -4.3131    7.6832   21.9625 C   0  0  0  0  0  0  0  0  0  0  0  0
   -5.1899    7.2979   22.9790 C   0  0  0  0  0  0  0  0  0  0  0  0
   -9.3053    8.6478   25.3954 C   0  0  0  0  0  0  0  0  0  0  0  0
   -8.2869    9.5454   25.5352 N   0  0  0  0  0  0  0  0  0  0  0  0
   -8.5900   10.7327   26.1076 C   0  0  0  0  0  0  0  0  0  0  0  0
   -7.5936   11.6921   26.2820 C   0  0  0  0  0  0  0  0  0  0  0  0
   -6.3106   11.4221   25.8696 O   0  0  0  0  0  0  0  0  0  0  0  0
   -7.8346   12.9341   26.8647 C   0  0  0  0  0  0  0  0  0  0  0  0
   -9.1188   13.2458   27.2960 C   0  0  0  0  0  0  0  0  0  0  0  0
  -10.1452   12.3142   27.1391 C   0  0  0  0  0  0  0  0  0  0  0  0
   -9.8904   11.0622   26.5491 C   0  0  0  0  0  0  0  0  0  0  0  0
  -10.9047   10.1121   26.3822 C   0  0  0  0  0  0  0  0  0  0  0  0
  -10.6117    8.8861   25.7976 C   0  0  0  0  0  0  0  0  0  0  0  0
   -6.9856    7.8688   24.7869 H   0  0  0  0  0  0  0  0  0  0  0  0
   -7.9571    5.3650   23.5189 H   0  0  0  0  0  0  0  0  0  0  0  0
   -6.5806    5.3117   24.6012 H   0  0  0  0  0  0  0  0  0  0  0  0
   -8.1330    3.3643   20.1671 H   0  0  0  0  0  0  0  0  0  0  0  0
   -6.3921    3.5490   19.9303 H   0  0  0  0  0  0  0  0  0  0  0  0
   -7.5505    4.7627   19.2555 H   0  0  0  0  0  0  0  0  0  0  0  0
   -5.4632    5.7224   19.4644 H   0  0  0  0  0  0  0  0  0  0  0  0
   -2.1683    8.5665   18.8119 H   0  0  0  0  0  0  0  0  0  0  0  0
   -1.9584    8.2314   20.5348 H   0  0  0  0  0  0  0  0  0  0  0  0
   -3.2121    9.4029   19.9673 H   0  0  0  0  0  0  0  0  0  0  0  0
   -3.5657    8.4352   22.1913 H   0  0  0  0  0  0  0  0  0  0  0  0
   -5.1053    7.7637   23.9598 H   0  0  0  0  0  0  0  0  0  0  0  0
   -5.7556   11.6146   26.6521 H   0  0  0  0  0  0  0  0  0  0  0  0
   -7.0239   13.6479   26.9794 H   0  0  0  0  0  0  0  0  0  0  0  0
   -9.3212   14.2111   27.7536 H   0  0  0  0  0  0  0  0  0  0  0  0
  -11.1462   12.5703   27.4807 H   0  0  0  0  0  0  0  0  0  0  0  0
  -11.9224   10.3192   26.7044 H   0  0  0  0  0  0  0  0  0  0  0  0
  -11.3839    8.1359   25.6589 H   0  0  0  0  0  0  0  0  0  0  0  0
  1  2  2  0  0  0  0
  2 15  1  0  0  0  0
  2  3  1  0  0  0  0
  3  4  1  0  0  0  0
  3 26  1  0  0  0  0
  4 27  1  0  0  0  0
  4  5  1  0  0  0  0
  4 28  1  0  0  0  0
  5  6  2  0  0  0  0
  5 14  1  0  0  0  0
  6  7  1  0  0  0  0
  6  9  1  0  0  0  0
  7  8  1  0  0  0  0
  8 29  1  0  0  0  0
  8 30  1  0  0  0  0
  8 31  1  0  0  0  0
  9 10  2  0  0  0  0
  9 32  1  0  0  0  0
 10 11  1  0  0  0  0
 10 13  1  0  0  0  0
 11 12  1  0  0  0  0
 12 33  1  0  0  0  0
 12 35  1  0  0  0  0
 12 34  1  0  0  0  0
 13 14  2  0  0  0  0
 13 36  1  0  0  0  0
 14 37  1  0  0  0  0
 15 25  2  0  0  0  0
 15 16  1  0  0  0  0
 16 17  2  0  0  0  0
 17 18  1  0  0  0  0
 17 23  1  0  0  0  0
 18 19  1  0  0  0  0
 18 20  2  0  0  0  0
 19 38  1  0  0  0  0
 20 21  1  0  0  0  0
 20 39  1  0  0  0  0
 21 22  2  0  0  0  0
 21 40  1  0  0  0  0
 22 23  1  0  0  0  0
 22 41  1  0  0  0  0
 23 24  2  0  0  0  0
 24 25  1  0  0  0  0
 24 42  1  0  0  0  0
 25 43  1  0  0  0  0
M  END
$$$$
