*****_entry_00001_conf_01
 OpenBabel06232217283D

 67 71  0  0  1  0  0  0  0  0999 V2000
   -9.9837    5.7851   26.7276 O   0  0  0  0  0  0  0  0  0  0  0  0
   -8.8179    5.4097   26.8100 C   0  0  0  0  0  0  0  0  0  0  0  0
   -8.2862    4.8494   27.9497 N   0  0  0  0  0  0  0  0  0  0  0  0
   -9.1439    4.4607   29.0379 C   0  0  0  0  0  0  0  0  0  0  0  0
   -9.8839    3.1891   28.7314 C   0  0  0  0  0  0  0  0  0  0  0  0
  -11.2239    3.0297   29.0952 C   0  0  0  0  0  0  0  0  0  0  0  0
  -11.9081    1.8441   28.7968 C   0  0  0  0  0  0  0  0  0  0  0  0
  -11.2725    0.7785   28.1451 C   0  0  0  0  0  0  0  0  0  0  0  0
  -11.9121   -0.4346   27.8316 N   0  3  0  0  0  0  0  0  0  0  0  0
  -11.2243   -1.6715   28.1961 C   0  0  0  0  0  0  0  0  0  0  0  0
  -12.4791   -0.4323   26.4801 C   0  0  0  0  0  0  0  0  0  0  0  0
   -9.9253    0.9530   27.7895 C   0  0  0  0  0  0  0  0  0  0  0  0
   -9.2374    2.1361   28.0765 C   0  0  0  0  0  0  0  0  0  0  0  0
   -7.8168    5.5956   25.6622 C   0  0  0  0  0  0  0  0  0  0  0  0
   -7.6518    7.0174   25.2386 N   0  3  0  0  0  0  0  0  0  0  0  0
   -8.9665    7.7057   25.0418 C   0  0  2  0  0  0  0  0  0  0  0  0
   -9.5764    7.6150   23.6598 C   0  0  0  0  0  0  0  0  0  0  0  0
  -10.9445    7.5818   23.6043 O   0  0  0  0  0  0  0  0  0  0  0  0
  -11.2900    7.5219   22.2939 C   0  0  0  0  0  0  0  0  0  0  0  0
  -10.1692    7.5218   21.4987 C   0  0  0  0  0  0  0  0  0  0  0  0
   -9.0612    7.5752   22.3779 C   0  0  0  0  0  0  0  0  0  0  0  0
   -8.9165    9.0912   25.6451 C   0  0  0  0  0  0  0  0  0  0  0  0
  -10.1029    9.4424   26.4960 C   0  0  0  0  0  0  0  0  0  0  0  0
  -11.0310    8.6498   26.6540 O   0  0  0  0  0  0  0  0  0  0  0  0
  -10.1241   10.7689   27.2146 C   0  0  0  0  0  0  0  0  0  0  0  0
   -9.4270   11.8249   26.3890 C   0  0  0  0  0  0  0  0  0  0  0  0
   -8.0061   11.3836   26.0822 C   0  0  0  0  0  0  0  0  0  0  0  0
   -7.9226    9.9894   25.4729 C   0  0  0  0  0  0  0  0  0  0  0  0
   -6.7941    9.8135   24.6991 N   0  0  0  0  0  0  0  0  0  0  0  0
   -6.2674    8.6785   24.0431 C   0  0  0  0  0  0  0  0  0  0  0  0
   -6.6833    7.3397   24.2588 C   0  0  0  0  0  0  0  0  0  0  0  0
   -6.0339    6.3341   23.5068 C   0  0  0  0  0  0  0  0  0  0  0  0
   -5.0361    6.6213   22.5712 C   0  0  0  0  0  0  0  0  0  0  0  0
   -4.6527    7.9317   22.3525 C   0  0  0  0  0  0  0  0  0  0  0  0
   -5.2675    8.9465   23.0776 C   0  0  0  0  0  0  0  0  0  0  0  0
   -7.3885    4.3868   27.8235 H   0  0  0  0  0  0  0  0  0  0  0  0
   -9.8578    5.2697   29.2360 H   0  0  0  0  0  0  0  0  0  0  0  0
   -8.5272    4.3559   29.9383 H   0  0  0  0  0  0  0  0  0  0  0  0
  -11.7508    3.8280   29.6135 H   0  0  0  0  0  0  0  0  0  0  0  0
  -12.9457    1.7697   29.1068 H   0  0  0  0  0  0  0  0  0  0  0  0
  -10.8947   -1.6493   29.2411 H   0  0  0  0  0  0  0  0  0  0  0  0
  -10.3639   -1.8651   27.5460 H   0  0  0  0  0  0  0  0  0  0  0  0
  -11.9121   -2.5193   28.1003 H   0  0  0  0  0  0  0  0  0  0  0  0
  -13.2094    0.3722   26.3417 H   0  0  0  0  0  0  0  0  0  0  0  0
  -13.0080   -1.3727   26.2897 H   0  0  0  0  0  0  0  0  0  0  0  0
  -11.6918   -0.3289   25.7238 H   0  0  0  0  0  0  0  0  0  0  0  0
   -9.4049    0.1643   27.2519 H   0  0  0  0  0  0  0  0  0  0  0  0
   -8.1956    2.2329   27.7772 H   0  0  0  0  0  0  0  0  0  0  0  0
   -8.2343    5.0053   24.8370 H   0  0  0  0  0  0  0  0  0  0  0  0
   -6.8552    5.1457   25.9306 H   0  0  0  0  0  0  0  0  0  0  0  0
   -9.6735    7.1363   25.6580 H   0  0  0  0  0  0  0  0  0  0  0  0
  -12.3515    7.4885   22.0925 H   0  0  0  0  0  0  0  0  0  0  0  0
  -10.1544    7.4867   20.4189 H   0  0  0  0  0  0  0  0  0  0  0  0
   -8.0134    7.5875   22.1135 H   0  0  0  0  0  0  0  0  0  0  0  0
   -9.6468   10.6432   28.1923 H   0  0  0  0  0  0  0  0  0  0  0  0
  -11.1668   11.0645   27.3742 H   0  0  0  0  0  0  0  0  0  0  0  0
   -9.4170   12.7805   26.9249 H   0  0  0  0  0  0  0  0  0  0  0  0
   -9.9733   11.9868   25.4504 H   0  0  0  0  0  0  0  0  0  0  0  0
   -7.3984   11.4027   26.9958 H   0  0  0  0  0  0  0  0  0  0  0  0
   -7.5726   12.1226   25.3959 H   0  0  0  0  0  0  0  0  0  0  0  0
   -6.1801   10.6201   24.6434 H   0  0  0  0  0  0  0  0  0  0  0  0
   -6.2986    5.2866   23.6149 H   0  0  0  0  0  0  0  0  0  0  0  0
   -4.5690    5.8134   22.0132 H   0  0  0  0  0  0  0  0  0  0  0  0
   -3.8846    8.1661   21.6212 H   0  0  0  0  0  0  0  0  0  0  0  0
   -4.9588    9.9714   22.8837 H   0  0  0  0  0  0  0  0  0  0  0  0
  -12.7853   -0.4386   28.4672 H   0  0  0  0  0  0  0  0  0  0  0  0
   -7.2699    7.4883   26.1323 H   0  0  0  0  0  0  0  0  0  0  0  0
  1  2  2  0  0  0  0
  2 14  1  0  0  0  0
  2  3  1  0  0  0  0
  3  4  1  0  0  0  0
  3 36  1  0  0  0  0
  4  5  1  0  0  0  0
  4 37  1  0  0  0  0
  4 38  1  0  0  0  0
  5 13  2  0  0  0  0
  5  6  1  0  0  0  0
  6  7  2  0  0  0  0
  6 39  1  0  0  0  0
  7  8  1  0  0  0  0
  7 40  1  0  0  0  0
  8 12  2  0  0  0  0
  8  9  1  0  0  0  0
  9 10  1  0  0  0  0
  9 11  1  0  0  0  0
  9 66  1  0  0  0  0
 10 41  1  0  0  0  0
 10 42  1  0  0  0  0
 10 43  1  0  0  0  0
 11 44  1  0  0  0  0
 11 45  1  0  0  0  0
 11 46  1  0  0  0  0
 12 13  1  0  0  0  0
 12 47  1  0  0  0  0
 13 48  1  0  0  0  0
 14 49  1  0  0  0  0
 14 50  1  0  0  0  0
 14 15  1  0  0  0  0
 15 31  1  0  0  0  0
 15 16  1  0  0  0  0
 15 67  1  0  0  0  0
 16 22  1  0  0  0  0
 16 17  1  0  0  0  0
 16 51  1  1  0  0  0
 17 21  2  0  0  0  0
 17 18  1  0  0  0  0
 18 19  1  0  0  0  0
 19 20  2  0  0  0  0
 19 52  1  0  0  0  0
 20 21  1  0  0  0  0
 20 53  1  0  0  0  0
 21 54  1  0  0  0  0
 22 28  2  0  0  0  0
 22 23  1  0  0  0  0
 23 25  1  0  0  0  0
 23 24  2  0  0  0  0
 25 26  1  0  0  0  0
 25 55  1  0  0  0  0
 25 56  1  0  0  0  0
 26 27  1  0  0  0  0
 26 57  1  0  0  0  0
 26 58  1  0  0  0  0
 27 28  1  0  0  0  0
 27 59  1  0  0  0  0
 27 60  1  0  0  0  0
 28 29  1  0  0  0  0
 29 30  1  0  0  0  0
 29 61  1  0  0  0  0
 30 31  2  0  0  0  0
 30 35  1  0  0  0  0
 31 32  1  0  0  0  0
 32 33  2  0  0  0  0
 32 62  1  0  0  0  0
 33 34  1  0  0  0  0
 33 63  1  0  0  0  0
 34 35  2  0  0  0  0
 34 64  1  0  0  0  0
 35 65  1  0  0  0  0
M  CHG  2   9   1  15   1
M  END
$$$$
