*****_entry_00001_conf_01
 OpenBabel06232217283D

 39 42  0  0  0  0  0  0  0  0999 V2000
   -6.0177   11.6567   24.5889 Cl  0  0  0  0  0  0  0  0  0  0  0  0
   -7.4919   11.4314   25.4637 C   0  0  0  0  0  0  0  0  0  0  0  0
   -8.2529   10.2524   25.4296 C   0  0  0  0  0  0  0  0  0  0  0  0
   -7.9634    9.0361   24.6050 C   0  0  0  0  0  0  0  0  0  0  0  0
   -8.7474    8.0961   24.6925 O   0  0  0  0  0  0  0  0  0  0  0  0
   -6.8554    9.0766   23.7811 N   0  0  0  0  0  0  0  0  0  0  0  0
   -6.4845    8.1324   22.7992 C   0  0  0  0  0  0  0  0  0  0  0  0
   -5.3164    8.2253   22.0353 C   0  0  0  0  0  0  0  0  0  0  0  0
   -4.9667    7.2283   21.1056 C   0  0  0  0  0  0  0  0  0  0  0  0
   -3.7220    7.3111   20.3467 C   0  0  0  0  0  0  0  0  0  0  0  0
   -3.1597    8.5521   20.1968 O   0  0  0  0  0  0  0  0  0  0  0  0
   -2.0173    8.3152   19.4945 C   0  0  0  0  0  0  0  0  0  0  0  0
   -1.9426    6.9536   19.2522 C   0  0  0  0  0  0  0  0  0  0  0  0
   -3.0353    6.3207   19.7955 N   0  0  0  0  0  0  0  0  0  0  0  0
   -0.8423    6.4530   18.5447 C   0  0  0  0  0  0  0  0  0  0  0  0
    0.1367    7.3631   18.1144 C   0  0  0  0  0  0  0  0  0  0  0  0
    0.0204    8.7340   18.3806 C   0  0  0  0  0  0  0  0  0  0  0  0
   -1.0739    9.2489   19.0853 C   0  0  0  0  0  0  0  0  0  0  0  0
   -5.8328    6.1364   20.9458 C   0  0  0  0  0  0  0  0  0  0  0  0
   -5.5883    5.1110   20.0690 O   0  0  0  0  0  0  0  0  0  0  0  0
   -7.0022    6.0345   21.6947 C   0  0  0  0  0  0  0  0  0  0  0  0
   -7.3221    7.0252   22.6246 C   0  0  0  0  0  0  0  0  0  0  0  0
   -9.4111   10.1750   26.2312 C   0  0  0  0  0  0  0  0  0  0  0  0
   -9.8050   11.2489   27.0260 C   0  0  0  0  0  0  0  0  0  0  0  0
  -11.2259   11.1291   27.9866 Cl  0  0  0  0  0  0  0  0  0  0  0  0
   -9.0566   12.4194   27.0424 C   0  0  0  0  0  0  0  0  0  0  0  0
   -7.9009   12.5086   26.2652 C   0  0  0  0  0  0  0  0  0  0  0  0
   -6.2141    9.8517   23.9052 H   0  0  0  0  0  0  0  0  0  0  0  0
   -4.6399    9.0641   22.1693 H   0  0  0  0  0  0  0  0  0  0  0  0
   -0.7520    5.3921   18.3402 H   0  0  0  0  0  0  0  0  0  0  0  0
    1.0014    6.9957   17.5649 H   0  0  0  0  0  0  0  0  0  0  0  0
    0.7966    9.4141   18.0337 H   0  0  0  0  0  0  0  0  0  0  0  0
   -1.1831   10.3040   19.3029 H   0  0  0  0  0  0  0  0  0  0  0  0
   -4.8042    4.6128   20.3857 H   0  0  0  0  0  0  0  0  0  0  0  0
   -7.6589    5.1795   21.5578 H   0  0  0  0  0  0  0  0  0  0  0  0
   -8.2372    6.9190   23.2014 H   0  0  0  0  0  0  0  0  0  0  0  0
  -10.0146    9.2674   26.2293 H   0  0  0  0  0  0  0  0  0  0  0  0
   -9.3617   13.2609   27.6598 H   0  0  0  0  0  0  0  0  0  0  0  0
   -7.3160   13.4264   26.2947 H   0  0  0  0  0  0  0  0  0  0  0  0
  1  2  1  0  0  0  0
  2  3  2  0  0  0  0
  2 27  1  0  0  0  0
  3 23  1  0  0  0  0
  3  4  1  0  0  0  0
  4  5  2  0  0  0  0
  4  6  1  0  0  0  0
  6 28  1  0  0  0  0
  6  7  1  0  0  0  0
  7  8  2  0  0  0  0
  7 22  1  0  0  0  0
  8  9  1  0  0  0  0
  8 29  1  0  0  0  0
  9 10  1  0  0  0  0
  9 19  2  0  0  0  0
 10 14  2  0  0  0  0
 10 11  1  0  0  0  0
 11 12  1  0  0  0  0
 12 13  2  0  0  0  0
 12 18  1  0  0  0  0
 13 14  1  0  0  0  0
 13 15  1  0  0  0  0
 15 16  2  0  0  0  0
 15 30  1  0  0  0  0
 16 31  1  0  0  0  0
 16 17  1  0  0  0  0
 17 18  2  0  0  0  0
 17 32  1  0  0  0  0
 18 33  1  0  0  0  0
 19 20  1  0  0  0  0
 19 21  1  0  0  0  0
 20 34  1  0  0  0  0
 21 22  2  0  0  0  0
 21 35  1  0  0  0  0
 22 36  1  0  0  0  0
 23 37  1  0  0  0  0
 23 24  2  0  0  0  0
 24 25  1  0  0  0  0
 24 26  1  0  0  0  0
 26 38  1  0  0  0  0
 26 27  2  0  0  0  0
 27 39  1  0  0  0  0
M  END
$$$$
