*****_entry_00001_conf_01
 OpenBabel06232217283D

 47 50  0  0  0  0  0  0  0  0999 V2000
  -10.1260    5.4256   27.0128 O   0  0  0  0  0  0  0  0  0  0  0  0
   -9.3047    5.0906   26.1667 C   0  0  0  0  0  0  0  0  0  0  0  0
   -9.0264    3.7879   25.8136 N   0  0  0  0  0  0  0  0  0  0  0  0
   -9.6518    2.7012   26.3502 C   0  0  0  0  0  0  0  0  0  0  0  0
   -9.1295    1.2265   25.6713 S   0  0  0  0  0  0  0  0  0  0  0  0
  -10.2183    0.3786   26.7017 C   0  0  0  0  0  0  0  0  0  0  0  0
  -10.9079    1.3049   27.4874 C   0  0  0  0  0  0  0  0  0  0  0  0
  -10.5660    2.6317   27.2780 N   0  0  0  0  0  0  0  0  0  0  0  0
  -11.8697    0.8291   28.3997 C   0  0  0  0  0  0  0  0  0  0  0  0
  -12.1104   -0.5465   28.5051 C   0  0  0  0  0  0  0  0  0  0  0  0
  -11.4015   -1.4627   27.7228 C   0  0  0  0  0  0  0  0  0  0  0  0
  -11.6950   -2.9311   27.8418 C   0  0  0  0  0  0  0  0  0  0  0  0
  -10.4473   -1.0046   26.8018 C   0  0  0  0  0  0  0  0  0  0  0  0
   -8.4989    6.0767   25.4473 C   0  0  0  0  0  0  0  0  0  0  0  0
   -7.1807    5.9783   25.0227 C   0  0  0  0  0  0  0  0  0  0  0  0
   -6.2653    4.8163   25.1935 C   0  0  0  0  0  0  0  0  0  0  0  0
   -6.6900    7.0995   24.3613 N   0  0  0  0  0  0  0  0  0  0  0  0
   -7.6111    8.0379   24.3029 C   0  0  0  0  0  0  0  0  0  0  0  0
   -7.4290    9.3776   23.6531 C   0  0  0  0  0  0  0  0  0  0  0  0
   -6.8265   10.2793   24.5862 O   0  0  0  0  0  0  0  0  0  0  0  0
   -7.6082   10.8511   25.5510 C   0  0  0  0  0  0  0  0  0  0  0  0
   -8.9301   10.5197   25.8540 C   0  0  0  0  0  0  0  0  0  0  0  0
   -9.6077   11.1709   26.8984 C   0  0  0  0  0  0  0  0  0  0  0  0
  -11.0310   10.8170   27.2172 C   0  0  0  0  0  0  0  0  0  0  0  0
   -8.9631   12.1932   27.6040 C   0  0  0  0  0  0  0  0  0  0  0  0
   -7.6516   12.5423   27.2907 C   0  0  0  0  0  0  0  0  0  0  0  0
   -6.9785   11.8694   26.2715 C   0  0  0  0  0  0  0  0  0  0  0  0
   -9.1226    7.6157   24.9972 S   0  0  0  0  0  0  0  0  0  0  0  0
   -8.3128    3.6051   25.1251 H   0  0  0  0  0  0  0  0  0  0  0  0
  -12.4203    1.5369   29.0119 H   0  0  0  0  0  0  0  0  0  0  0  0
  -12.8628   -0.8953   29.2102 H   0  0  0  0  0  0  0  0  0  0  0  0
  -11.7145   -3.2326   28.8941 H   0  0  0  0  0  0  0  0  0  0  0  0
  -10.9284   -3.5330   27.3422 H   0  0  0  0  0  0  0  0  0  0  0  0
  -12.6628   -3.1578   27.3838 H   0  0  0  0  0  0  0  0  0  0  0  0
   -9.8945   -1.6989   26.1752 H   0  0  0  0  0  0  0  0  0  0  0  0
   -5.3904    4.9148   24.5424 H   0  0  0  0  0  0  0  0  0  0  0  0
   -6.7650    3.8784   24.9329 H   0  0  0  0  0  0  0  0  0  0  0  0
   -5.9148    4.7568   26.2283 H   0  0  0  0  0  0  0  0  0  0  0  0
   -8.4141    9.7895   23.4029 H   0  0  0  0  0  0  0  0  0  0  0  0
   -6.8837    9.3159   22.7054 H   0  0  0  0  0  0  0  0  0  0  0  0
   -9.4690    9.7635   25.2910 H   0  0  0  0  0  0  0  0  0  0  0  0
  -11.2504    9.7812   26.9376 H   0  0  0  0  0  0  0  0  0  0  0  0
  -11.7129   11.4808   26.6776 H   0  0  0  0  0  0  0  0  0  0  0  0
  -11.2205   10.9079   28.2921 H   0  0  0  0  0  0  0  0  0  0  0  0
   -9.4815   12.7244   28.3991 H   0  0  0  0  0  0  0  0  0  0  0  0
   -7.1535   13.3377   27.8381 H   0  0  0  0  0  0  0  0  0  0  0  0
   -5.9538   12.1444   26.0339 H   0  0  0  0  0  0  0  0  0  0  0  0
  1  2  2  0  0  0  0
  2  3  1  0  0  0  0
  2 14  1  0  0  0  0
  3  4  1  0  0  0  0
  3 29  1  0  0  0  0
  4  5  1  0  0  0  0
  4  8  2  0  0  0  0
  5  6  1  0  0  0  0
  6  7  2  0  0  0  0
  6 13  1  0  0  0  0
  7  8  1  0  0  0  0
  7  9  1  0  0  0  0
  9 10  2  0  0  0  0
  9 30  1  0  0  0  0
 10 11  1  0  0  0  0
 10 31  1  0  0  0  0
 11 12  1  0  0  0  0
 11 13  2  0  0  0  0
 12 32  1  0  0  0  0
 12 33  1  0  0  0  0
 12 34  1  0  0  0  0
 13 35  1  0  0  0  0
 14 15  2  0  0  0  0
 14 28  1  0  0  0  0
 15 17  1  0  0  0  0
 15 16  1  0  0  0  0
 16 38  1  0  0  0  0
 16 36  1  0  0  0  0
 16 37  1  0  0  0  0
 17 18  2  0  0  0  0
 18 19  1  0  0  0  0
 18 28  1  0  0  0  0
 19 20  1  0  0  0  0
 19 39  1  0  0  0  0
 19 40  1  0  0  0  0
 20 21  1  0  0  0  0
 21 22  2  0  0  0  0
 21 27  1  0  0  0  0
 22 41  1  0  0  0  0
 22 23  1  0  0  0  0
 23 25  2  0  0  0  0
 23 24  1  0  0  0  0
 24 44  1  0  0  0  0
 24 43  1  0  0  0  0
 24 42  1  0  0  0  0
 25 45  1  0  0  0  0
 25 26  1  0  0  0  0
 26 27  2  0  0  0  0
 26 46  1  0  0  0  0
 27 47  1  0  0  0  0
M  END
$$$$
