*****_entry_00001_conf_01
 OpenBabel06232217283D

 50 53  0  0  1  0  0  0  0  0999 V2000
  -12.0613   -3.3195   28.4676 Cl  0  0  0  0  0  0  0  0  0  0  0  0
  -11.3573   -1.9451   27.7088 C   0  0  0  0  0  0  0  0  0  0  0  0
  -11.2221   -1.9128   26.3227 C   0  0  0  0  0  0  0  0  0  0  0  0
  -10.6461   -0.7991   25.7068 C   0  0  0  0  0  0  0  0  0  0  0  0
  -10.1963    0.2856   26.4753 C   0  0  0  0  0  0  0  0  0  0  0  0
   -9.5635    1.4848   25.8131 C   0  0  0  0  0  0  0  0  0  0  0  0
   -8.0308    1.9866   26.6498 S   0  0  0  0  0  0  0  0  0  0  0  0
   -8.0777    3.6941   26.3468 C   0  0  0  0  0  0  0  0  0  0  0  0
   -7.6227    4.2267   25.2645 N   0  0  0  0  0  0  0  0  0  0  0  0
   -7.7376    5.5806   25.1620 C   0  0  0  0  0  0  0  0  0  0  0  0
   -7.2813    6.1130   23.9975 N   0  0  0  0  0  0  0  0  0  0  0  0
   -7.2035    7.4456   23.7000 C   0  0  0  0  0  0  0  0  0  0  0  0
   -6.7803    7.8275   22.6114 O   0  0  0  0  0  0  0  0  0  0  0  0
   -7.5109    8.4108   24.8265 C   0  0  0  0  0  0  0  0  0  0  0  0
   -8.4683    7.8468   25.8789 C   0  0  1  0  0  0  0  0  0  0  0  0
   -9.9182    8.0354   25.4246 C   0  0  0  0  0  0  0  0  0  0  0  0
  -10.6947    8.7246   26.0798 O   0  0  0  0  0  0  0  0  0  0  0  0
  -10.2043    7.3984   24.2289 N   0  0  0  0  0  0  0  0  0  0  0  0
  -11.4370    7.3969   23.5429 C   0  0  0  0  0  0  0  0  0  0  0  0
  -12.6296    7.8742   24.0870 C   0  0  0  0  0  0  0  0  0  0  0  0
  -13.8184    7.8227   23.3517 C   0  0  0  0  0  0  0  0  0  0  0  0
  -13.8386    7.2730   22.0670 C   0  0  0  0  0  0  0  0  0  0  0  0
  -15.1207    7.2209   21.2914 C   0  0  0  0  0  0  0  0  0  0  0  0
  -12.6399    6.8200   21.5091 C   0  0  0  0  0  0  0  0  0  0  0  0
  -11.4481    6.8879   22.2393 C   0  0  0  0  0  0  0  0  0  0  0  0
   -8.2815    6.3789   26.0867 C   0  0  0  0  0  0  0  0  0  0  0  0
   -8.7648    5.7469   27.3250 C   0  0  0  0  0  0  0  0  0  0  0  0
   -9.2449    6.4131   28.2368 O   0  0  0  0  0  0  0  0  0  0  0  0
   -8.6356    4.3932   27.3708 N   0  0  0  0  0  0  0  0  0  0  0  0
  -10.3498    0.2421   27.8698 C   0  0  0  0  0  0  0  0  0  0  0  0
  -10.9260   -0.8716   28.4847 C   0  0  0  0  0  0  0  0  0  0  0  0
  -11.5611   -2.7490   25.7171 H   0  0  0  0  0  0  0  0  0  0  0  0
  -10.5472   -0.7848   24.6230 H   0  0  0  0  0  0  0  0  0  0  0  0
  -10.2749    2.3191   25.8154 H   0  0  0  0  0  0  0  0  0  0  0  0
   -9.3519    1.2452   24.7644 H   0  0  0  0  0  0  0  0  0  0  0  0
   -6.9838    5.4716   23.2737 H   0  0  0  0  0  0  0  0  0  0  0  0
   -7.9072    9.3366   24.3935 H   0  0  0  0  0  0  0  0  0  0  0  0
   -6.5498    8.6489   25.2999 H   0  0  0  0  0  0  0  0  0  0  0  0
   -8.3026    8.4041   26.8091 H   0  0  0  0  0  0  0  0  0  0  0  0
   -9.4548    6.8695   23.7910 H   0  0  0  0  0  0  0  0  0  0  0  0
  -12.6716    8.3121   25.0791 H   0  0  0  0  0  0  0  0  0  0  0  0
  -14.7307    8.2124   23.7985 H   0  0  0  0  0  0  0  0  0  0  0  0
  -15.9557    6.9536   21.9479 H   0  0  0  0  0  0  0  0  0  0  0  0
  -15.0743    6.4641   20.5014 H   0  0  0  0  0  0  0  0  0  0  0  0
  -15.3237    8.1942   20.8344 H   0  0  0  0  0  0  0  0  0  0  0  0
  -12.6251    6.4018   20.5052 H   0  0  0  0  0  0  0  0  0  0  0  0
  -10.5368    6.5134   21.7802 H   0  0  0  0  0  0  0  0  0  0  0  0
   -8.9595    3.9022   28.1905 H   0  0  0  0  0  0  0  0  0  0  0  0
  -10.0179    1.0755   28.4857 H   0  0  0  0  0  0  0  0  0  0  0  0
  -11.0341   -0.8952   29.5657 H   0  0  0  0  0  0  0  0  0  0  0  0
  1  2  1  0  0  0  0
  2  3  2  0  0  0  0
  2 31  1  0  0  0  0
  3 32  1  0  0  0  0
  3  4  1  0  0  0  0
  4 33  1  0  0  0  0
  4  5  2  0  0  0  0
  5  6  1  0  0  0  0
  5 30  1  0  0  0  0
  6 34  1  0  0  0  0
  6 35  1  0  0  0  0
  6  7  1  0  0  0  0
  7  8  1  0  0  0  0
  8  9  2  0  0  0  0
  8 29  1  0  0  0  0
  9 10  1  0  0  0  0
 10 11  1  0  0  0  0
 10 26  2  0  0  0  0
 11 12  1  0  0  0  0
 11 36  1  0  0  0  0
 12 13  2  0  0  0  0
 12 14  1  0  0  0  0
 14 37  1  0  0  0  0
 14 38  1  0  0  0  0
 14 15  1  0  0  0  0
 15 26  1  0  0  0  0
 15 16  1  0  0  0  0
 15 39  1  1  0  0  0
 16 18  1  0  0  0  0
 16 17  2  0  0  0  0
 18 40  1  0  0  0  0
 18 19  1  0  0  0  0
 19 25  2  0  0  0  0
 19 20  1  0  0  0  0
 20 21  2  0  0  0  0
 20 41  1  0  0  0  0
 21 42  1  0  0  0  0
 21 22  1  0  0  0  0
 22 23  1  0  0  0  0
 22 24  2  0  0  0  0
 23 43  1  0  0  0  0
 23 44  1  0  0  0  0
 23 45  1  0  0  0  0
 24 25  1  0  0  0  0
 24 46  1  0  0  0  0
 25 47  1  0  0  0  0
 26 27  1  0  0  0  0
 27 29  1  0  0  0  0
 27 28  2  0  0  0  0
 29 48  1  0  0  0  0
 30 31  2  0  0  0  0
 30 49  1  0  0  0  0
 31 50  1  0  0  0  0
M  END
$$$$
