*****_entry_00001_conf_01
 OpenBabel06232217283D

 43 46  0  0  0  0  0  0  0  0999 V2000
   -0.6407    7.5893   15.0183 Br  0  0  0  0  0  0  0  0  0  0  0  0
   -1.0326    6.9919   16.7810 C   0  0  0  0  0  0  0  0  0  0  0  0
   -0.4536    5.8226   17.3052 C   0  0  0  0  0  0  0  0  0  0  0  0
    0.4149    5.1446   16.4920 O   0  0  0  0  0  0  0  0  0  0  0  0
    1.5450    4.5293   17.0958 C   0  0  0  0  0  0  0  0  0  0  0  0
   -0.7994    5.4236   18.6013 C   0  0  0  0  0  0  0  0  0  0  0  0
   -1.7039    6.1765   19.3577 C   0  0  0  0  0  0  0  0  0  0  0  0
   -2.2566    7.3464   18.8307 C   0  0  0  0  0  0  0  0  0  0  0  0
   -3.2313    8.1121   19.6464 C   0  0  0  0  0  0  0  0  0  0  0  0
   -3.5370    9.2385   19.2748 O   0  0  0  0  0  0  0  0  0  0  0  0
   -3.7281    7.4268   20.7385 N   0  0  0  0  0  0  0  0  0  0  0  0
   -4.5742    7.9393   21.7430 C   0  0  0  0  0  0  0  0  0  0  0  0
   -4.6810    9.3269   21.8547 C   0  0  0  0  0  0  0  0  0  0  0  0
   -5.5231    9.8966   22.8142 C   0  0  0  0  0  0  0  0  0  0  0  0
   -5.5553   11.2698   22.8327 O   0  0  0  0  0  0  0  0  0  0  0  0
   -6.2834    9.1062   23.6949 C   0  0  0  0  0  0  0  0  0  0  0  0
   -7.1666    9.7396   24.6951 C   0  0  0  0  0  0  0  0  0  0  0  0
   -8.4648    8.8944   25.4432 S   0  0  0  0  0  0  0  0  0  0  0  0
   -8.8686   10.2906   26.3588 C   0  0  0  0  0  0  0  0  0  0  0  0
   -7.9738   11.3125   26.0437 C   0  0  0  0  0  0  0  0  0  0  0  0
   -6.9966   10.9802   25.1183 N   0  0  0  0  0  0  0  0  0  0  0  0
   -8.1254   12.5648   26.6727 C   0  0  0  0  0  0  0  0  0  0  0  0
   -9.1588   12.7584   27.5956 C   0  0  0  0  0  0  0  0  0  0  0  0
  -10.0347   11.7216   27.9008 C   0  0  0  0  0  0  0  0  0  0  0  0
   -9.9050   10.4708   27.2897 C   0  0  0  0  0  0  0  0  0  0  0  0
   -6.1762    7.7134   23.5574 C   0  0  0  0  0  0  0  0  0  0  0  0
   -5.3311    7.1383   22.5966 C   0  0  0  0  0  0  0  0  0  0  0  0
   -1.9288    7.7545   17.5359 C   0  0  0  0  0  0  0  0  0  0  0  0
    2.1178    4.0344   16.3056 H   0  0  0  0  0  0  0  0  0  0  0  0
    1.2409    3.7623   17.8155 H   0  0  0  0  0  0  0  0  0  0  0  0
    2.1967    5.2754   17.5621 H   0  0  0  0  0  0  0  0  0  0  0  0
   -0.3907    4.5253   19.0535 H   0  0  0  0  0  0  0  0  0  0  0  0
   -1.9779    5.8480   20.3591 H   0  0  0  0  0  0  0  0  0  0  0  0
   -3.5279    6.4352   20.7923 H   0  0  0  0  0  0  0  0  0  0  0  0
   -4.1124    9.9884   21.2070 H   0  0  0  0  0  0  0  0  0  0  0  0
   -4.9137   11.5743   23.5115 H   0  0  0  0  0  0  0  0  0  0  0  0
   -7.4409   13.3728   26.4338 H   0  0  0  0  0  0  0  0  0  0  0  0
   -9.2755   13.7269   28.0767 H   0  0  0  0  0  0  0  0  0  0  0  0
  -10.8325   11.8844   28.6227 H   0  0  0  0  0  0  0  0  0  0  0  0
  -10.5901    9.6625   27.5273 H   0  0  0  0  0  0  0  0  0  0  0  0
   -6.7563    7.0363   24.1802 H   0  0  0  0  0  0  0  0  0  0  0  0
   -5.3053    6.0542   22.5285 H   0  0  0  0  0  0  0  0  0  0  0  0
   -2.3925    8.6373   17.1033 H   0  0  0  0  0  0  0  0  0  0  0  0
  1  2  1  0  0  0  0
  2 28  2  0  0  0  0
  2  3  1  0  0  0  0
  3  4  1  0  0  0  0
  3  6  2  0  0  0  0
  4  5  1  0  0  0  0
  5 29  1  0  0  0  0
  5 30  1  0  0  0  0
  5 31  1  0  0  0  0
  6  7  1  0  0  0  0
  6 32  1  0  0  0  0
  7  8  2  0  0  0  0
  7 33  1  0  0  0  0
  8 28  1  0  0  0  0
  8  9  1  0  0  0  0
  9 10  2  0  0  0  0
  9 11  1  0  0  0  0
 11 12  1  0  0  0  0
 11 34  1  0  0  0  0
 12 27  2  0  0  0  0
 12 13  1  0  0  0  0
 13 14  2  0  0  0  0
 13 35  1  0  0  0  0
 14 15  1  0  0  0  0
 14 16  1  0  0  0  0
 15 36  1  0  0  0  0
 16 17  1  0  0  0  0
 16 26  2  0  0  0  0
 17 18  1  0  0  0  0
 17 21  2  0  0  0  0
 18 19  1  0  0  0  0
 19 20  2  0  0  0  0
 19 25  1  0  0  0  0
 20 21  1  0  0  0  0
 20 22  1  0  0  0  0
 22 37  1  0  0  0  0
 22 23  2  0  0  0  0
 23 24  1  0  0  0  0
 23 38  1  0  0  0  0
 24 25  2  0  0  0  0
 24 39  1  0  0  0  0
 25 40  1  0  0  0  0
 26 27  1  0  0  0  0
 26 41  1  0  0  0  0
 27 42  1  0  0  0  0
 28 43  1  0  0  0  0
M  END
$$$$
