*****_entry_00001_conf_01
 OpenBabel06232217283D

 59 63  0  0  1  0  0  0  0  0999 V2000
   -9.4136    5.4579   23.2116 O   0  0  0  0  0  0  0  0  0  0  0  0
   -9.3463    6.4656   23.9122 C   0  0  0  0  0  0  0  0  0  0  0  0
   -8.9248    6.4429   25.2319 N   0  0  0  0  0  0  0  0  0  0  0  0
   -8.4208    5.2154   25.8377 C   0  0  1  0  0  0  0  0  0  0  0  0
   -8.1156    5.4269   27.3296 C   0  0  0  0  0  0  0  0  0  0  0  0
   -9.3801    5.4583   28.1905 C   0  0  0  0  0  0  0  0  0  0  0  0
  -10.2526    4.2078   28.0031 C   0  0  2  0  0  0  0  0  0  0  0  0
   -9.6025    2.9006   28.5105 C   0  0  0  0  0  0  0  0  0  0  0  0
  -10.1740    1.6987   27.9342 N   0  0  0  0  0  0  0  0  0  0  0  0
  -11.2264    0.9914   28.4925 C   0  0  0  0  0  0  0  0  0  0  0  0
  -11.8345    1.2246   29.5177 O   0  0  0  0  0  0  0  0  0  0  0  0
  -11.4884   -0.1413   27.5941 C   0  0  0  0  0  0  0  0  0  0  0  0
  -10.5893   -0.0711   26.5297 C   0  0  0  0  0  0  0  0  0  0  0  0
  -10.5925   -1.0440   25.5462 C   0  0  0  0  0  0  0  0  0  0  0  0
  -11.5241   -2.0831   25.6514 C   0  0  0  0  0  0  0  0  0  0  0  0
  -12.4360   -2.1338   26.7229 C   0  0  0  0  0  0  0  0  0  0  0  0
  -12.4237   -1.1509   27.7144 C   0  0  0  0  0  0  0  0  0  0  0  0
   -9.7255    1.1365   26.6699 C   0  0  0  0  0  0  0  0  0  0  0  0
  -10.6241    4.0894   26.5147 C   0  0  0  0  0  0  0  0  0  0  0  0
   -9.3981    4.0564   25.5987 C   0  0  0  0  0  0  0  0  0  0  0  0
   -9.6784    7.8640   23.3859 C   0  0  0  0  0  0  0  0  0  0  0  0
   -9.9834    8.7025   24.5316 N   0  0  0  0  0  0  0  0  0  0  0  0
  -11.2691    8.6929   25.0403 C   0  0  0  0  0  0  0  0  0  0  0  0
  -12.1650    7.9479   24.6478 O   0  0  0  0  0  0  0  0  0  0  0  0
  -11.5245    9.5555   26.0699 N   0  0  0  0  0  0  0  0  0  0  0  0
  -10.5854   10.4415   26.5914 C   0  0  0  0  0  0  0  0  0  0  0  0
   -9.2864   10.4405   26.0946 C   0  0  0  0  0  0  0  0  0  0  0  0
   -8.9446    9.4878   25.0233 C   0  0  0  0  0  0  0  0  0  0  0  0
   -7.7915    9.4295   24.5989 O   0  0  0  0  0  0  0  0  0  0  0  0
   -8.3381   11.3388   26.5921 C   0  0  0  0  0  0  0  0  0  0  0  0
   -8.7020   12.2391   27.5938 C   0  0  0  0  0  0  0  0  0  0  0  0
  -10.0043   12.2335   28.0985 C   0  0  0  0  0  0  0  0  0  0  0  0
  -10.9489   11.3320   27.6010 C   0  0  0  0  0  0  0  0  0  0  0  0
   -8.5750    7.3174   25.6084 H   0  0  0  0  0  0  0  0  0  0  0  0
   -7.4792    4.9704   25.3306 H   0  0  0  0  0  0  0  0  0  0  0  0
   -7.5577    6.3592   27.4798 H   0  0  0  0  0  0  0  0  0  0  0  0
   -7.4616    4.6190   27.6777 H   0  0  0  0  0  0  0  0  0  0  0  0
   -9.9707    6.3444   27.9233 H   0  0  0  0  0  0  0  0  0  0  0  0
   -9.1164    5.5939   29.2434 H   0  0  0  0  0  0  0  0  0  0  0  0
  -11.1805    4.3615   28.5703 H   0  0  0  0  0  0  0  0  0  0  0  0
   -9.6434    2.8054   29.5997 H   0  0  0  0  0  0  0  0  0  0  0  0
   -8.5412    2.9143   28.2318 H   0  0  0  0  0  0  0  0  0  0  0  0
   -9.8924   -1.0118   24.7174 H   0  0  0  0  0  0  0  0  0  0  0  0
  -11.5454   -2.8651   24.8948 H   0  0  0  0  0  0  0  0  0  0  0  0
  -13.1533   -2.9494   26.7802 H   0  0  0  0  0  0  0  0  0  0  0  0
  -13.1142   -1.1749   28.5506 H   0  0  0  0  0  0  0  0  0  0  0  0
   -9.9114    1.8603   25.8711 H   0  0  0  0  0  0  0  0  0  0  0  0
   -8.6687    0.8709   26.7229 H   0  0  0  0  0  0  0  0  0  0  0  0
  -11.2570    4.9417   26.2359 H   0  0  0  0  0  0  0  0  0  0  0  0
  -11.2296    3.1908   26.3466 H   0  0  0  0  0  0  0  0  0  0  0  0
   -9.7309    4.0541   24.5533 H   0  0  0  0  0  0  0  0  0  0  0  0
   -8.8660    3.1098   25.7522 H   0  0  0  0  0  0  0  0  0  0  0  0
  -10.5385    7.8380   22.7090 H   0  0  0  0  0  0  0  0  0  0  0  0
   -8.8117    8.2283   22.8257 H   0  0  0  0  0  0  0  0  0  0  0  0
  -12.4737    9.5412   26.4205 H   0  0  0  0  0  0  0  0  0  0  0  0
   -7.3248   11.3448   26.1968 H   0  0  0  0  0  0  0  0  0  0  0  0
   -7.9716   12.9470   27.9786 H   0  0  0  0  0  0  0  0  0  0  0  0
  -10.2849   12.9378   28.8787 H   0  0  0  0  0  0  0  0  0  0  0  0
  -11.9592   11.3438   28.0010 H   0  0  0  0  0  0  0  0  0  0  0  0
  1  2  2  0  0  0  0
  2  3  1  0  0  0  0
  2 21  1  0  0  0  0
  3  4  1  0  0  0  0
  3 34  1  0  0  0  0
  4  5  1  0  0  0  0
  4 20  1  0  0  0  0
  4 35  1  6  0  0  0
  5 37  1  0  0  0  0
  5 36  1  0  0  0  0
  5  6  1  0  0  0  0
  6 38  1  0  0  0  0
  6 39  1  0  0  0  0
  6  7  1  0  0  0  0
  7 40  1  1  0  0  0
  7  8  1  0  0  0  0
  7 19  1  0  0  0  0
  8  9  1  0  0  0  0
  8 41  1  0  0  0  0
  8 42  1  0  0  0  0
  9 10  1  0  0  0  0
  9 18  1  0  0  0  0
 10 12  1  0  0  0  0
 10 11  2  0  0  0  0
 12 13  2  0  0  0  0
 12 17  1  0  0  0  0
 13 18  1  0  0  0  0
 13 14  1  0  0  0  0
 14 43  1  0  0  0  0
 14 15  2  0  0  0  0
 15 16  1  0  0  0  0
 15 44  1  0  0  0  0
 16 45  1  0  0  0  0
 16 17  2  0  0  0  0
 17 46  1  0  0  0  0
 18 47  1  0  0  0  0
 18 48  1  0  0  0  0
 19 20  1  0  0  0  0
 19 49  1  0  0  0  0
 19 50  1  0  0  0  0
 20 51  1  0  0  0  0
 20 52  1  0  0  0  0
 21 22  1  0  0  0  0
 21 53  1  0  0  0  0
 21 54  1  0  0  0  0
 22 28  1  0  0  0  0
 22 23  1  0  0  0  0
 23 24  2  0  0  0  0
 23 25  1  0  0  0  0
 25 26  1  0  0  0  0
 25 55  1  0  0  0  0
 26 27  2  0  0  0  0
 26 33  1  0  0  0  0
 27 28  1  0  0  0  0
 27 30  1  0  0  0  0
 28 29  2  0  0  0  0
 30 56  1  0  0  0  0
 30 31  2  0  0  0  0
 31 32  1  0  0  0  0
 31 57  1  0  0  0  0
 32 58  1  0  0  0  0
 32 33  2  0  0  0  0
 33 59  1  0  0  0  0
M  END
$$$$
