*****_entry_00001_conf_01
 OpenBabel06232217283D

 58 61  0  0  0  0  0  0  0  0999 V2000
   -9.7160    4.4979   30.0634 S   0  0  0  0  0  0  0  0  0  0  0  0
   -9.6432    3.5950   28.6478 C   0  0  0  0  0  0  0  0  0  0  0  0
   -9.1176    4.0148   27.4077 N   0  0  0  0  0  0  0  0  0  0  0  0
   -8.5288    5.3508   27.2352 C   0  0  0  0  0  0  0  0  0  0  0  0
   -9.4010    6.2348   26.3375 C   0  0  0  0  0  0  0  0  0  0  0  0
   -8.5621    7.2065   25.5057 C   0  0  0  0  0  0  0  0  0  0  0  0
   -9.4620    8.1923   24.7629 C   0  0  0  0  0  0  0  0  0  0  0  0
  -10.0443    9.2530   25.6789 C   0  0  0  0  0  0  0  0  0  0  0  0
  -11.1970    9.1157   26.0955 O   0  0  0  0  0  0  0  0  0  0  0  0
   -9.2633   10.3570   26.0026 N   0  0  0  0  0  0  0  0  0  0  0  0
   -7.8350   10.4831   25.7115 C   0  0  0  0  0  0  0  0  0  0  0  0
   -7.4677   11.9205   25.3466 C   0  0  0  0  0  0  0  0  0  0  0  0
   -7.9360   12.9380   26.3958 C   0  0  0  0  0  0  0  0  0  0  0  0
   -7.0862   12.8762   27.6666 C   0  0  0  0  0  0  0  0  0  0  0  0
   -9.4278   12.7328   26.6914 C   0  0  0  0  0  0  0  0  0  0  0  0
   -9.7784   11.2819   27.0127 C   0  0  0  0  0  0  0  0  0  0  0  0
   -9.0521    3.1853   26.2660 C   0  0  0  0  0  0  0  0  0  0  0  0
   -8.5517    3.5183   25.1942 O   0  0  0  0  0  0  0  0  0  0  0  0
   -9.6153    1.8886   26.4660 C   0  0  0  0  0  0  0  0  0  0  0  0
   -9.7227    0.8646   25.5669 N   0  0  0  0  0  0  0  0  0  0  0  0
   -9.4046    0.9038   24.6071 H   0  0  0  0  0  0  0  0  0  0  0  0
  -10.3263   -0.2213   26.1705 C   0  0  0  0  0  0  0  0  0  0  0  0
  -10.6038    0.1370   27.4944 C   0  0  0  0  0  0  0  0  0  0  0  0
  -10.1463    1.4658   27.6473 C   0  0  0  0  0  0  0  0  0  0  0  0
  -10.1532    2.3159   28.7203 N   0  0  0  0  0  0  0  0  0  0  0  0
  -11.2243   -0.8076   28.3342 C   0  0  0  0  0  0  0  0  0  0  0  0
  -11.5510   -2.0771   27.8367 C   0  0  0  0  0  0  0  0  0  0  0  0
  -12.1490   -2.9017   28.7525 O   0  0  0  0  0  0  0  0  0  0  0  0
  -12.0929   -4.2994   28.4965 C   0  0  0  0  0  0  0  0  0  0  0  0
  -11.2623   -2.4021   26.5111 C   0  0  0  0  0  0  0  0  0  0  0  0
  -10.6445   -1.4809   25.6533 C   0  0  0  0  0  0  0  0  0  0  0  0
   -7.5165    5.2747   26.8275 H   0  0  0  0  0  0  0  0  0  0  0  0
   -8.4217    5.8239   28.2192 H   0  0  0  0  0  0  0  0  0  0  0  0
  -10.1085    6.8003   26.9565 H   0  0  0  0  0  0  0  0  0  0  0  0
  -10.0054    5.6093   25.6697 H   0  0  0  0  0  0  0  0  0  0  0  0
   -7.9543    6.6484   24.7828 H   0  0  0  0  0  0  0  0  0  0  0  0
   -7.8560    7.7359   26.1546 H   0  0  0  0  0  0  0  0  0  0  0  0
  -10.2690    7.6854   24.2237 H   0  0  0  0  0  0  0  0  0  0  0  0
   -8.8760    8.7110   23.9929 H   0  0  0  0  0  0  0  0  0  0  0  0
   -7.5296    9.8279   24.8948 H   0  0  0  0  0  0  0  0  0  0  0  0
   -7.2893   10.1499   26.6015 H   0  0  0  0  0  0  0  0  0  0  0  0
   -7.9432   12.1681   24.3882 H   0  0  0  0  0  0  0  0  0  0  0  0
   -6.3857   12.0002   25.1912 H   0  0  0  0  0  0  0  0  0  0  0  0
   -7.8092   13.9439   25.9748 H   0  0  0  0  0  0  0  0  0  0  0  0
   -7.1468   11.9040   28.1640 H   0  0  0  0  0  0  0  0  0  0  0  0
   -7.4098   13.6390   28.3827 H   0  0  0  0  0  0  0  0  0  0  0  0
   -6.0333   13.0673   27.4323 H   0  0  0  0  0  0  0  0  0  0  0  0
  -10.0010   13.0393   25.8065 H   0  0  0  0  0  0  0  0  0  0  0  0
   -9.7490   13.3825   27.5140 H   0  0  0  0  0  0  0  0  0  0  0  0
  -10.8655   11.1925   27.1087 H   0  0  0  0  0  0  0  0  0  0  0  0
   -9.3497   10.9818   27.9763 H   0  0  0  0  0  0  0  0  0  0  0  0
  -10.5396    1.9971   29.6014 H   0  0  0  0  0  0  0  0  0  0  0  0
  -11.4519   -0.5601   29.3667 H   0  0  0  0  0  0  0  0  0  0  0  0
  -12.6052   -4.8105   29.3174 H   0  0  0  0  0  0  0  0  0  0  0  0
  -11.0577   -4.6562   28.4772 H   0  0  0  0  0  0  0  0  0  0  0  0
  -12.6168   -4.5521   27.5687 H   0  0  0  0  0  0  0  0  0  0  0  0
  -11.5067   -3.3776   26.1020 H   0  0  0  0  0  0  0  0  0  0  0  0
  -10.4241   -1.7450   24.6237 H   0  0  0  0  0  0  0  0  0  0  0  0
  1  2  2  0  0  0  0
  2  3  1  0  0  0  0
  2 25  1  0  0  0  0
  3  4  1  0  0  0  0
  3 17  1  0  0  0  0
  4 32  1  0  0  0  0
  4  5  1  0  0  0  0
  4 33  1  0  0  0  0
  5 35  1  0  0  0  0
  5  6  1  0  0  0  0
  5 34  1  0  0  0  0
  6 36  1  0  0  0  0
  6  7  1  0  0  0  0
  6 37  1  0  0  0  0
  7  8  1  0  0  0  0
  7 38  1  0  0  0  0
  7 39  1  0  0  0  0
  8 10  1  0  0  0  0
  8  9  2  0  0  0  0
 10 11  1  0  0  0  0
 10 16  1  0  0  0  0
 11 40  1  0  0  0  0
 11 12  1  0  0  0  0
 11 41  1  0  0  0  0
 12 13  1  0  0  0  0
 12 42  1  0  0  0  0
 12 43  1  0  0  0  0
 13 14  1  0  0  0  0
 13 15  1  0  0  0  0
 13 44  1  0  0  0  0
 14 45  1  0  0  0  0
 14 46  1  0  0  0  0
 14 47  1  0  0  0  0
 15 16  1  0  0  0  0
 15 49  1  0  0  0  0
 15 48  1  0  0  0  0
 16 50  1  0  0  0  0
 16 51  1  0  0  0  0
 17 18  2  0  0  0  0
 17 19  1  0  0  0  0
 19 20  1  0  0  0  0
 19 24  2  0  0  0  0
 20 21  1  0  0  0  0
 20 22  1  0  0  0  0
 22 23  2  0  0  0  0
 22 31  1  0  0  0  0
 23 24  1  0  0  0  0
 23 26  1  0  0  0  0
 24 25  1  0  0  0  0
 25 52  1  0  0  0  0
 26 27  2  0  0  0  0
 26 53  1  0  0  0  0
 27 30  1  0  0  0  0
 27 28  1  0  0  0  0
 28 29  1  0  0  0  0
 29 54  1  0  0  0  0
 29 55  1  0  0  0  0
 29 56  1  0  0  0  0
 30 31  2  0  0  0  0
 30 57  1  0  0  0  0
 31 58  1  0  0  0  0
M  END
$$$$
