*****_entry_00001_conf_01
 OpenBabel06232217283D

 43 46  0  0  0  0  0  0  0  0999 V2000
  -13.5818    6.4817   24.2379 O   0  0  0  0  0  0  0  0  0  0  0  0
  -12.5376    7.1316   24.3031 C   0  0  0  0  0  0  0  0  0  0  0  0
  -12.4831    8.2253   25.1551 N   0  0  0  0  0  0  0  0  0  0  0  0
  -11.3339    8.8800   25.4690 N   0  0  0  0  0  0  0  0  0  0  0  0
  -11.4645   10.0075   26.0971 C   0  0  0  0  0  0  0  0  0  0  0  0
  -10.2652   10.7970   26.4754 C   0  0  0  0  0  0  0  0  0  0  0  0
  -10.3748   11.7555   27.4997 C   0  0  0  0  0  0  0  0  0  0  0  0
  -11.5377   12.0222   28.1722 O   0  0  0  0  0  0  0  0  0  0  0  0
   -9.2796   12.5158   27.8817 C   0  0  0  0  0  0  0  0  0  0  0  0
   -8.0561   12.3268   27.2483 C   0  0  0  0  0  0  0  0  0  0  0  0
   -7.9108   11.3771   26.2261 C   0  0  0  0  0  0  0  0  0  0  0  0
   -9.0190   10.5874   25.8164 C   0  0  0  0  0  0  0  0  0  0  0  0
   -8.7863    9.6328   24.7921 C   0  0  0  0  0  0  0  0  0  0  0  0
   -7.5310    9.4792   24.1970 C   0  0  0  0  0  0  0  0  0  0  0  0
   -6.4673   10.2682   24.6087 C   0  0  0  0  0  0  0  0  0  0  0  0
   -6.6569   11.2088   25.6177 C   0  0  0  0  0  0  0  0  0  0  0  0
  -11.3744    6.7766   23.5268 C   0  0  0  0  0  0  0  0  0  0  0  0
  -11.4523    5.9324   22.4515 N   0  0  0  0  0  0  0  0  0  0  0  0
  -12.2902    5.4901   22.0865 H   0  0  0  0  0  0  0  0  0  0  0  0
  -10.2713    5.6682   21.8648 N   0  0  0  0  0  0  0  0  0  0  0  0
   -9.3949    6.4004   22.5650 C   0  0  0  0  0  0  0  0  0  0  0  0
   -7.9220    6.3974   22.2838 C   0  0  0  0  0  0  0  0  0  0  0  0
   -7.2387    6.0471   20.7568 S   0  0  0  0  0  0  0  0  0  0  0  0
   -5.6468    6.3041   21.3267 C   0  0  0  0  0  0  0  0  0  0  0  0
   -4.4933    6.1670   20.3941 C   0  0  0  0  0  0  0  0  0  0  0  0
   -5.6372    6.6423   22.6643 C   0  0  0  0  0  0  0  0  0  0  0  0
   -6.9519    6.6953   23.2172 C   0  0  0  0  0  0  0  0  0  0  0  0
  -10.0427    7.1381   23.5803 C   0  0  0  0  0  0  0  0  0  0  0  0
  -13.3413    8.4323   25.6548 H   0  0  0  0  0  0  0  0  0  0  0  0
  -12.4604   10.4033   26.3526 H   0  0  0  0  0  0  0  0  0  0  0  0
  -11.4470   12.8994   28.6020 H   0  0  0  0  0  0  0  0  0  0  0  0
   -9.3794   13.2529   28.6743 H   0  0  0  0  0  0  0  0  0  0  0  0
   -7.2089   12.9310   27.5678 H   0  0  0  0  0  0  0  0  0  0  0  0
   -9.5762    8.9754   24.4404 H   0  0  0  0  0  0  0  0  0  0  0  0
   -7.3863    8.7375   23.4151 H   0  0  0  0  0  0  0  0  0  0  0  0
   -5.4882   10.1500   24.1517 H   0  0  0  0  0  0  0  0  0  0  0  0
   -5.8069   11.8124   25.9318 H   0  0  0  0  0  0  0  0  0  0  0  0
   -4.6177    5.3086   19.7255 H   0  0  0  0  0  0  0  0  0  0  0  0
   -3.5600    6.0232   20.9479 H   0  0  0  0  0  0  0  0  0  0  0  0
   -4.3902    7.0700   19.7832 H   0  0  0  0  0  0  0  0  0  0  0  0
   -4.7332    6.8512   23.2233 H   0  0  0  0  0  0  0  0  0  0  0  0
   -7.1762    6.9488   24.2467 H   0  0  0  0  0  0  0  0  0  0  0  0
   -9.5832    7.8296   24.2711 H   0  0  0  0  0  0  0  0  0  0  0  0
  1  2  2  0  0  0  0
  2  3  1  0  0  0  0
  2 17  1  0  0  0  0
  3  4  1  0  0  0  0
  3 29  1  0  0  0  0
  4  5  2  0  0  0  0
  5  6  1  0  0  0  0
  5 30  1  0  0  0  0
  6  7  2  0  0  0  0
  6 12  1  0  0  0  0
  7  8  1  0  0  0  0
  7  9  1  0  0  0  0
  8 31  1  0  0  0  0
  9 32  1  0  0  0  0
  9 10  2  0  0  0  0
 10 33  1  0  0  0  0
 10 11  1  0  0  0  0
 11 12  2  0  0  0  0
 11 16  1  0  0  0  0
 12 13  1  0  0  0  0
 13 14  2  0  0  0  0
 13 34  1  0  0  0  0
 14 35  1  0  0  0  0
 14 15  1  0  0  0  0
 15 16  2  0  0  0  0
 15 36  1  0  0  0  0
 16 37  1  0  0  0  0
 17 28  2  0  0  0  0
 17 18  1  0  0  0  0
 18 19  1  0  0  0  0
 18 20  1  0  0  0  0
 20 21  2  0  0  0  0
 21 28  1  0  0  0  0
 21 22  1  0  0  0  0
 22 23  1  0  0  0  0
 22 27  2  0  0  0  0
 23 24  1  0  0  0  0
 24 25  1  0  0  0  0
 24 26  2  0  0  0  0
 25 38  1  0  0  0  0
 25 39  1  0  0  0  0
 25 40  1  0  0  0  0
 26 27  1  0  0  0  0
 26 41  1  0  0  0  0
 27 42  1  0  0  0  0
 28 43  1  0  0  0  0
M  END
$$$$
