*****_entry_00001_conf_01
 OpenBabel06232217283D

 50 54  0  0  0  0  0  0  0  0999 V2000
   -8.4920    6.9226   26.0394 O   0  0  0  0  0  0  0  0  0  0  0  0
   -7.6022    6.2754   25.4954 C   0  0  0  0  0  0  0  0  0  0  0  0
   -7.3190    4.9512   25.7975 N   0  0  0  0  0  0  0  0  0  0  0  0
   -7.9486    4.1118   26.7387 C   0  0  0  0  0  0  0  0  0  0  0  0
   -8.8260    4.5609   27.7281 C   0  0  0  0  0  0  0  0  0  0  0  0
   -9.4177    3.6630   28.6326 C   0  0  0  0  0  0  0  0  0  0  0  0
  -10.3586    4.1814   29.6803 C   0  0  0  0  0  0  0  0  0  0  0  0
   -9.1257    2.2999   28.5357 C   0  0  0  0  0  0  0  0  0  0  0  0
   -8.2509    1.8414   27.5532 C   0  0  0  0  0  0  0  0  0  0  0  0
   -7.6647    2.7426   26.6614 C   0  0  0  0  0  0  0  0  0  0  0  0
   -6.7573    6.8607   24.4399 C   0  0  0  0  0  0  0  0  0  0  0  0
   -6.7752    8.1663   23.9448 C   0  0  0  0  0  0  0  0  0  0  0  0
   -7.6626    9.2672   24.4450 C   0  0  0  0  0  0  0  0  0  0  0  0
   -5.8486    8.3155   22.8491 C   0  0  0  0  0  0  0  0  0  0  0  0
   -5.5801    9.4576   21.9943 C   0  0  0  0  0  0  0  0  0  0  0  0
   -6.1599   10.5345   22.0712 O   0  0  0  0  0  0  0  0  0  0  0  0
   -4.6046    9.2256   21.0502 N   0  0  0  0  0  0  0  0  0  0  0  0
   -3.9347    8.0277   20.8958 C   0  0  0  0  0  0  0  0  0  0  0  0
   -2.9116    7.9890   19.7960 C   0  0  0  0  0  0  0  0  0  0  0  0
   -2.4709    9.2053   19.0715 C   0  0  0  0  0  0  0  0  0  0  0  0
   -2.9262   10.3112   19.3554 O   0  0  0  0  0  0  0  0  0  0  0  0
   -1.5283    9.0554   18.0633 O   0  0  0  0  0  0  0  0  0  0  0  0
   -0.9930    7.7963   17.7434 C   0  0  0  0  0  0  0  0  0  0  0  0
   -1.4002    6.6574   18.4298 C   0  0  0  0  0  0  0  0  0  0  0  0
   -0.8423    5.4233   18.0862 C   0  0  0  0  0  0  0  0  0  0  0  0
    0.1111    5.3450   17.0652 C   0  0  0  0  0  0  0  0  0  0  0  0
    0.4991    6.5034   16.3940 C   0  0  0  0  0  0  0  0  0  0  0  0
    1.4248    6.4672   15.3946 O   0  0  0  0  0  0  0  0  0  0  0  0
   -0.0472    7.7369   16.7245 C   0  0  0  0  0  0  0  0  0  0  0  0
   -2.3942    6.7893   19.4816 C   0  0  0  0  0  0  0  0  0  0  0  0
   -4.1724    6.9940   21.6515 N   0  0  0  0  0  0  0  0  0  0  0  0
   -5.1267    7.1710   22.6005 C   0  0  0  0  0  0  0  0  0  0  0  0
   -5.5692    5.9066   23.6405 S   0  0  0  0  0  0  0  0  0  0  0  0
   -6.5722    4.5352   25.2553 H   0  0  0  0  0  0  0  0  0  0  0  0
   -9.0728    5.6135   27.8270 H   0  0  0  0  0  0  0  0  0  0  0  0
  -11.2353    4.6352   29.2070 H   0  0  0  0  0  0  0  0  0  0  0  0
   -9.8562    4.9308   30.3008 H   0  0  0  0  0  0  0  0  0  0  0  0
  -10.7070    3.3802   30.3400 H   0  0  0  0  0  0  0  0  0  0  0  0
   -9.5766    1.5886   29.2237 H   0  0  0  0  0  0  0  0  0  0  0  0
   -8.0256    0.7805   27.4808 H   0  0  0  0  0  0  0  0  0  0  0  0
   -6.9875    2.3554   25.9047 H   0  0  0  0  0  0  0  0  0  0  0  0
   -7.8255    9.1979   25.5238 H   0  0  0  0  0  0  0  0  0  0  0  0
   -8.6310    9.2300   23.9367 H   0  0  0  0  0  0  0  0  0  0  0  0
   -7.2178   10.2512   24.2745 H   0  0  0  0  0  0  0  0  0  0  0  0
   -4.4099   10.0130   20.4346 H   0  0  0  0  0  0  0  0  0  0  0  0
   -1.1402    4.5147   18.6049 H   0  0  0  0  0  0  0  0  0  0  0  0
    0.5364    4.3789   16.8097 H   0  0  0  0  0  0  0  0  0  0  0  0
    2.0327    7.2180   15.4975 H   0  0  0  0  0  0  0  0  0  0  0  0
    0.2604    8.6344   16.1974 H   0  0  0  0  0  0  0  0  0  0  0  0
   -2.6970    5.8811   19.9960 H   0  0  0  0  0  0  0  0  0  0  0  0
  1  2  2  0  0  0  0
  2  3  1  0  0  0  0
  2 11  1  0  0  0  0
  3 34  1  0  0  0  0
  3  4  1  0  0  0  0
  4 10  2  0  0  0  0
  4  5  1  0  0  0  0
  5  6  2  0  0  0  0
  5 35  1  0  0  0  0
  6  8  1  0  0  0  0
  6  7  1  0  0  0  0
  7 36  1  0  0  0  0
  7 37  1  0  0  0  0
  7 38  1  0  0  0  0
  8  9  2  0  0  0  0
  8 39  1  0  0  0  0
  9 10  1  0  0  0  0
  9 40  1  0  0  0  0
 10 41  1  0  0  0  0
 11 12  2  0  0  0  0
 11 33  1  0  0  0  0
 12 13  1  0  0  0  0
 12 14  1  0  0  0  0
 13 42  1  0  0  0  0
 13 43  1  0  0  0  0
 13 44  1  0  0  0  0
 14 32  2  0  0  0  0
 14 15  1  0  0  0  0
 15 17  1  0  0  0  0
 15 16  2  0  0  0  0
 17 18  1  0  0  0  0
 17 45  1  0  0  0  0
 18 19  1  0  0  0  0
 18 31  2  0  0  0  0
 19 20  1  0  0  0  0
 19 30  2  0  0  0  0
 20 21  2  0  0  0  0
 20 22  1  0  0  0  0
 22 23  1  0  0  0  0
 23 24  2  0  0  0  0
 23 29  1  0  0  0  0
 24 30  1  0  0  0  0
 24 25  1  0  0  0  0
 25 46  1  0  0  0  0
 25 26  2  0  0  0  0
 26 47  1  0  0  0  0
 26 27  1  0  0  0  0
 27 29  2  0  0  0  0
 27 28  1  0  0  0  0
 28 48  1  0  0  0  0
 29 49  1  0  0  0  0
 30 50  1  0  0  0  0
 31 32  1  0  0  0  0
 32 33  1  0  0  0  0
M  END
$$$$
