*****_entry_00001_conf_01
 OpenBabel06232217283D

 37 39  0  0  0  0  0  0  0  0999 V2000
   -7.4657   13.2215   26.7678 Br  0  0  0  0  0  0  0  0  0  0  0  0
   -8.8911   11.9793   26.7419 C   0  0  0  0  0  0  0  0  0  0  0  0
   -8.6396   10.6498   26.3991 C   0  0  0  0  0  0  0  0  0  0  0  0
   -9.6964    9.7334   26.3824 C   0  0  0  0  0  0  0  0  0  0  0  0
   -9.3997    8.3403   25.9961 C   0  0  0  0  0  0  0  0  0  0  0  0
   -8.2506    8.0037   25.4954 N   0  0  0  0  0  0  0  0  0  0  0  0
   -8.1092    6.6665   25.2606 N   0  0  0  0  0  0  0  0  0  0  0  0
   -6.9724    6.0930   24.7213 C   0  0  0  0  0  0  0  0  0  0  0  0
   -6.7845    4.8864   24.8965 O   0  0  0  0  0  0  0  0  0  0  0  0
   -6.0470    6.8958   23.9663 C   0  0  0  0  0  0  0  0  0  0  0  0
   -5.0297    6.3227   23.2580 N   0  0  0  0  0  0  0  0  0  0  0  0
   -4.8094    5.3326   23.2064 H   0  0  0  0  0  0  0  0  0  0  0  0
   -4.2886    7.1876   22.5523 N   0  0  0  0  0  0  0  0  0  0  0  0
   -4.8385    8.3876   22.8022 C   0  0  0  0  0  0  0  0  0  0  0  0
   -4.3355    9.5907   22.1298 C   0  0  0  0  0  0  0  0  0  0  0  0
   -3.5664    9.5760   20.9541 C   0  0  0  0  0  0  0  0  0  0  0  0
   -3.1671    8.1285   20.0979 Cl  0  0  0  0  0  0  0  0  0  0  0  0
   -3.1098   10.7742   20.3861 C   0  0  0  0  0  0  0  0  0  0  0  0
   -3.4240   11.9935   20.9791 C   0  0  0  0  0  0  0  0  0  0  0  0
   -2.8633   13.4589   20.2747 Cl  0  0  0  0  0  0  0  0  0  0  0  0
   -4.1945   12.0341   22.1343 C   0  0  0  0  0  0  0  0  0  0  0  0
   -4.6464   10.8409   22.7031 C   0  0  0  0  0  0  0  0  0  0  0  0
   -5.9463    8.2445   23.6847 C   0  0  0  0  0  0  0  0  0  0  0  0
  -10.9921   10.1580   26.6973 C   0  0  0  0  0  0  0  0  0  0  0  0
  -12.0783    9.3308   26.6689 O   0  0  0  0  0  0  0  0  0  0  0  0
  -11.2344   11.4868   27.0375 C   0  0  0  0  0  0  0  0  0  0  0  0
  -10.1811   12.4021   27.0621 C   0  0  0  0  0  0  0  0  0  0  0  0
   -7.6290   10.3368   26.1516 H   0  0  0  0  0  0  0  0  0  0  0  0
  -10.2032    7.5976   26.1546 H   0  0  0  0  0  0  0  0  0  0  0  0
   -8.7062    6.0121   25.7564 H   0  0  0  0  0  0  0  0  0  0  0  0
   -2.5174   10.7539   19.4747 H   0  0  0  0  0  0  0  0  0  0  0  0
   -4.4520   12.9831   22.5975 H   0  0  0  0  0  0  0  0  0  0  0  0
   -5.2520   10.8878   23.6080 H   0  0  0  0  0  0  0  0  0  0  0  0
   -6.6161    9.0201   24.0284 H   0  0  0  0  0  0  0  0  0  0  0  0
  -12.8830    9.8793   26.5472 H   0  0  0  0  0  0  0  0  0  0  0  0
  -12.2449   11.8073   27.2790 H   0  0  0  0  0  0  0  0  0  0  0  0
  -10.3795   13.4377   27.3270 H   0  0  0  0  0  0  0  0  0  0  0  0
  1  2  1  0  0  0  0
  2  3  2  0  0  0  0
  2 27  1  0  0  0  0
  3  4  1  0  0  0  0
  3 28  1  0  0  0  0
  4 24  2  0  0  0  0
  4  5  1  0  0  0  0
  5  6  2  0  0  0  0
  5 29  1  0  0  0  0
  6  7  1  0  0  0  0
  7  8  1  0  0  0  0
  7 30  1  0  0  0  0
  8  9  2  0  0  0  0
  8 10  1  0  0  0  0
 10 11  1  0  0  0  0
 10 23  2  0  0  0  0
 11 12  1  0  0  0  0
 11 13  1  0  0  0  0
 13 14  2  0  0  0  0
 14 15  1  0  0  0  0
 14 23  1  0  0  0  0
 15 16  2  0  0  0  0
 15 22  1  0  0  0  0
 16 18  1  0  0  0  0
 16 17  1  0  0  0  0
 18 19  2  0  0  0  0
 18 31  1  0  0  0  0
 19 21  1  0  0  0  0
 19 20  1  0  0  0  0
 21 22  2  0  0  0  0
 21 32  1  0  0  0  0
 22 33  1  0  0  0  0
 23 34  1  0  0  0  0
 24 25  1  0  0  0  0
 24 26  1  0  0  0  0
 25 35  1  0  0  0  0
 26 27  2  0  0  0  0
 26 36  1  0  0  0  0
 27 37  1  0  0  0  0
M  END
$$$$
